                                   MODFLOW 6
                U.S. GEOLOGICAL SURVEY MODULAR HYDROLOGIC MODEL
                          GROUNDWATER FLOW MODEL (GWF)
                            VERSION 6.3.0 03/04/2022

   MODFLOW 6 compiled Mar 02 2022 15:29:04 with Intel(R) Fortran Intel(R) 64
   Compiler Classic for applications running on Intel(R) 64, Version 2021.5.0
                             Build 20211109_000000

This software has been approved for release by the U.S. Geological 
Survey (USGS). Although the software has been subjected to rigorous 
review, the USGS reserves the right to update the software as needed 
pursuant to further analysis and review. No warranty, expressed or 
implied, is made by the USGS or the U.S. Government as to the 
functionality of the software and related material nor shall the 
fact of release constitute any such warranty. Furthermore, the 
software is released on condition that neither the USGS nor the U.S. 
Government shall be held liable for any damages resulting from its 
authorized or unauthorized use. Also refer to the USGS Water 
Resources Software User Rights Notice for complete use, copyright, 
and distribution information.


As a work of the United States Government, this USGS product is 
in the public domain within the United States. You can copy, 
modify, distribute, and perform the work, even for commercial 
purposes, all without asking permission. Additionally, USGS 
waives copyright and related rights in the work worldwide 
through CC0 1.0 Universal Public Domain Dedication 
(https://creativecommons.org/publicdomain/zero/1.0/).

The following GNU Lesser General Public License (LGPL) libraries
are used in this USGS product:

    SPARSKIT version 2.0
      ilut, luson, and qsplit 
      (https://www-users.cse.umn.edu/~saad/software/SPARSKIT/)

    RCM - Reverse Cuthill McKee Ordering
      (https://people.math.sc.edu/Burkardt/f_src/rcm/rcm.html)

    BLAS - Basic Linear Algebra Subprograms Level 1
      (https://people.math.sc.edu/Burkardt/f_src/blas1_d/blas1_d.html)

    SPARSEKIT - Sparse Matrix Utility Package
      amux, dperm, dvperm, rperm, and cperm
      (https://people.sc.fsu.edu/~jburkardt/f77_src/sparsekit/sparsekit.html)

The following BSD-3 License libraries are used in this USGS product:

    Modern Fortran DAG Library
      Copyright (c) 2018, Jacob Williams
      All rights reserved.
      (https://github.com/jacobwilliams/daglib)

MODFLOW 6 compiler options: /Isrc\libmf6core.a.p /Isrc /I..\src
/Isrc\libmf6_external.a.p /MTd /nologo /warn:general /warn:truncated_source
/stand:f08 /Zi /traceback /O2 /Zi /fpe:0 /fpp /Qdiag-disable:7416
/Qdiag-disable:7025 /Qdiag-disable:5268
/Fdsrc\libmf6core.a.p\Utilities_compilerversion.F90.pdb
/module:src\libmf6core.a.p
/Fosrc/libmf6core.a.p/Utilities_compilerversion.F90.obj /c

System command used to initiate simulation:
../exe/mf6.exe

MODFLOW was compiled using uniform precision.

Real Variables
  KIND: 8
  TINY (smallest non-zero value):    2.225074-308
  HUGE (largest value):    1.797693+308
  PRECISION: 15
  BIT SIZE: 64

Integer Variables
  KIND: 4
  HUGE (largest value): 2147483647
  BIT SIZE: 32

Long Integer Variables
  KIND: 8
  HUGE (largest value): 9223372036854775807
  BIT SIZE: 64

Logical Variables
  KIND: 4
  BIT SIZE: 32
 

 OPENED .\geo_model.disv
 FILE TYPE:DISV6                  UNIT 1005   STATUS:OLD                 
 FORMAT:FORMATTED              ACCESS:SEQUENTIAL          
 ACTION:READ                


 OPENED .\geo_model.ic
 FILE TYPE:IC6                    UNIT 1006   STATUS:OLD                 
 FORMAT:FORMATTED              ACCESS:SEQUENTIAL          
 ACTION:READ                


 OPENED .\geo_model.npf
 FILE TYPE:NPF6                   UNIT 1007   STATUS:OLD                 
 FORMAT:FORMATTED              ACCESS:SEQUENTIAL          
 ACTION:READ                


 OPENED .\geo_model.sto
 FILE TYPE:STO6                   UNIT 1008   STATUS:OLD                 
 FORMAT:FORMATTED              ACCESS:SEQUENTIAL          
 ACTION:READ                


 OPENED .\geo_model.evta
 FILE TYPE:EVT6                   UNIT 1009   STATUS:OLD                 
 FORMAT:FORMATTED              ACCESS:SEQUENTIAL          
 ACTION:READ                


 OPENED .\geo_model.rch
 FILE TYPE:RCH6                   UNIT 1010   STATUS:OLD                 
 FORMAT:FORMATTED              ACCESS:SEQUENTIAL          
 ACTION:READ                


 OPENED .\geo_model.wel
 FILE TYPE:WEL6                   UNIT 1011   STATUS:OLD                 
 FORMAT:FORMATTED              ACCESS:SEQUENTIAL          
 ACTION:READ                


 OPENED .\geo_model.riv
 FILE TYPE:RIV6                   UNIT 1012   STATUS:OLD                 
 FORMAT:FORMATTED              ACCESS:SEQUENTIAL          
 ACTION:READ                


 OPENED .\geo_model.ghb
 FILE TYPE:GHB6                   UNIT 1013   STATUS:OLD                 
 FORMAT:FORMATTED              ACCESS:SEQUENTIAL          
 ACTION:READ                


 OPENED .\geo_model.oc
 FILE TYPE:OC6                    UNIT 1014   STATUS:OLD                 
 FORMAT:FORMATTED              ACCESS:SEQUENTIAL          
 ACTION:READ                

 NAMEFILE OPTIONS:
    FLOWS WILL BE SAVED TO BUDGET FILE SPECIFIED IN OUTPUT CONTROL
    NEWTON-RAPHSON method enabled for the model.
    NEWTON-RAPHSON UNDER-RELAXATION based on the bottom elevation of the model will be applied to the model.

 DISV -- VERTEX GRID DISCRETIZATION PACKAGE, VERSION 1 : 12/23/2015 - INPUT READ FROM UNIT 1005


 # File generated by Flopy version 3.3.5 on 09/17/2022 at 20:47:40.

 PROCESSING DISCRETIZATION OPTIONS
   MODEL LENGTH UNIT IS UNDEFINED
 END OF DISCRETIZATION OPTIONS

 PROCESSING DISCRETIZATION DIMENSIONS
   NLAY = 3
   NCPL = 2302
   NVERT = 3907
 END OF DISCRETIZATION DIMENSIONS

 PROCESSING GRIDDATA
 END PROCESSING GRIDDATA

 PROCESSING VERTICES
   SUCCESSFULLY READ 3907 (X,Y) COORDINATES
   MINIMUM X COORDINATE =     353300.000000000    
   MAXIMUM X COORDINATE =     356400.000000000    
   MINIMUM Y COORDINATE =     8547900.00000000    
   MAXIMUM Y COORDINATE =     8549600.00000000    
 END PROCESSING VERTICES

 PROCESSING CELL2D
   SUCCESSFULLY READ 2302 CELL2D INFORMATION ENTRIES
   MINIMUM X CELL CENTER =     353304.373000000    
   MAXIMUM X CELL CENTER =     356395.232000000    
   MINIMUM Y CELL CENTER =     8547930.00000000    
   MAXIMUM Y CELL CENTER =     8549540.00000000    
   MAXIMUM NUMBER OF CELL2D VERTICES IS 10 FOR CELL 520
 END PROCESSING VERTICES

 NPF -- NODE PROPERTY FLOW PACKAGE, VERSION 1, 3/30/2015 INPUT READ FROM UNIT 1007


 # File generated by Flopy version 3.3.5 on 09/17/2022 at 20:47:40.
 PROCESSING NPF OPTIONS
    SPECIFIC DISCHARGE WILL BE CALCULATED AT CELL CENTERS AND WRITTEN TO DATA-SPDIS IN BUDGET FILE WHEN REQUESTED.
 END OF NPF OPTIONS

 WEL   -- WEL PACKAGE, VERSION 8, 2/22/2014 INPUT READ FROM UNIT 1011
 # File generated by Flopy version 3.3.5 on 09/17/2022 at 20:47:40.

 PROCESSING WEL OPTIONS
 END OF WEL OPTIONS

 PROCESSING WEL DIMENSIONS
    MAXBOUND =       3
 END OF WEL DIMENSIONS

 RIV   -- RIV PACKAGE, VERSION 8, 2/22/2014 INPUT READ FROM UNIT 1012
 # File generated by Flopy version 3.3.5 on 09/17/2022 at 20:47:40.

 PROCESSING RIV OPTIONS
 END OF RIV OPTIONS

 PROCESSING RIV DIMENSIONS
    MAXBOUND =     669
 END OF RIV DIMENSIONS

 GHB   -- GHB PACKAGE, VERSION 8, 2/22/2014 INPUT READ FROM UNIT 1013
 # File generated by Flopy version 3.3.5 on 09/17/2022 at 20:47:40.

 PROCESSING GHB OPTIONS
 END OF GHB OPTIONS

 PROCESSING GHB DIMENSIONS
    MAXBOUND =      37
 END OF GHB DIMENSIONS

 RCH   -- RCH PACKAGE, VERSION 8, 2/22/2014 INPUT READ FROM UNIT 1010
 # File generated by Flopy version 3.3.5 on 09/17/2022 at 20:47:40.

 PROCESSING RCH OPTIONS
 END OF RCH OPTIONS

 PROCESSING RCH DIMENSIONS
    MAXBOUND =    1292
 END OF RCH DIMENSIONS

 EVT   -- EVT PACKAGE, VERSION 8, 2/22/2014 INPUT READ FROM UNIT 1009
 # File generated by Flopy version 3.3.5 on 09/17/2022 at 20:47:40.

 PROCESSING EVT OPTIONS
    EVAPOTRANSPIRATION INPUT WILL BE READ AS ARRAYS.
 END OF EVTA OPTIONS

 IC -- INITIAL CONDITIONS PACKAGE, VERSION 8, 3/28/2015 INPUT READ FROM UNIT 1006
 # File generated by Flopy version 3.3.5 on 09/17/2022 at 20:47:40.
 PROCESSING GRIDDATA
 END PROCESSING GRIDDATA
 PROCESSING GRIDDATA

                ICELLTYPE = 1 FOR LAYER 1

                ICELLTYPE = 1 FOR LAYER 2

                ICELLTYPE = 0 FOR LAYER 3

                        K =  0.1000000E-04 FOR LAYER 1

                        K =  0.5000000E-03 FOR LAYER 2

                        K =  0.2000000E-03 FOR LAYER 3
 K33 not provided.  Assuming K33 = K.
 K22 not provided.  Assuming K22 = K.
 END PROCESSING GRIDDATA

 STO -- STORAGE PACKAGE, VERSION 1, 5/19/2014 INPUT READ FROM UNIT 1008


 # File generated by Flopy version 3.3.5 on 09/17/2022 at 20:47:40.
 PROCESSING STORAGE OPTIONS
 END OF STORAGE OPTIONS
 PROCESSING GRIDDATA

                 ICONVERT = 0

         SPECIFIC STORAGE =  0.1000000E-04

           SPECIFIC YIELD =  0.1500000    
 END PROCESSING GRIDDATA
    BINARY GRID INFORMATION WILL BE WRITTEN TO:
      UNIT NUMBER: 1016
      FILE NAME: D:\Proyectos_GitHub\dev_mode\examples\out\geospacial\model\geo_model.disv.grb

 OPENED D:\Proyectos_GitHub\dev_mode\examples\out\geospacial\model\geo_model.disv.grb
 FILE TYPE:DATA(BINARY)   UNIT 1016   STATUS:REPLACE             
 FORMAT:UNFORMATTED            ACCESS:STREAM              
 ACTION:READWRITE           

      THE LAST TIME STEP WILL BE PRINTED
      THE LAST TIME STEP WILL BE PRINTED
 # File generated by Flopy version 3.3.5 on 09/17/2022 at 20:47:40.

 PROCESSING OC OPTIONS

    BUDGET INFORMATION WILL BE WRITTEN TO:
      UNIT NUMBER: 1017
      FILE NAME: geo_model.cbc

 OPENED geo_model.cbc
 FILE TYPE:DATA(BINARY)   UNIT 1017   STATUS:REPLACE             
 FORMAT:UNFORMATTED            ACCESS:STREAM              
 ACTION:READWRITE           

    HEAD INFORMATION WILL BE WRITTEN TO:
      UNIT NUMBER: 1018
      FILE NAME: geo_model.hds

 OPENED geo_model.hds
 FILE TYPE:DATA(BINARY)   UNIT 1018   STATUS:REPLACE             
 FORMAT:UNFORMATTED            ACCESS:STREAM              
 ACTION:READWRITE           

 END OF OC OPTIONS

start timestep kper="1" kstp="1" mode="normal"


 BEGIN READING OUTPUT CONTROL FOR STRESS PERIOD 1
      ALL TIME STEPS WILL BE SAVED
      ALL TIME STEPS WILL BE SAVED

 END READING OUTPUT CONTROL FOR STRESS PERIOD 1


 STRESS PERIOD 1 IS TRANSIENT


 REUSING WELS FROM LAST STRESS PERIOD

      LAYER OR NODE INDEX = 2

  EVAPOTRANSPIRATION RATE =  0.3805175E-07

         EXTINCTION DEPTH =   1.000000    
 UBDSV1 SAVING           STO-SS ON UNIT   1017 AT TIME STEP      1, STRESS PERIOD      1
 UBDSV1 SAVING     FLOW-JA-FACE ON UNIT   1017 AT TIME STEP      1, STRESS PERIOD      1
 UBDSV06 SAVING       DATA-SPDIS IN MODEL GEO_MODEL        PACKAGE NPF             CONNECTED TO MODEL GEO_MODEL        PACKAGE NPF              ON UNIT   1017 AT TIME STEP      1, STRESS PERIOD      1
 UBDSV06 SAVING              WEL IN MODEL GEO_MODEL        PACKAGE GEO_MODEL       CONNECTED TO MODEL GEO_MODEL        PACKAGE WEL_0            ON UNIT   1017 AT TIME STEP      1, STRESS PERIOD      1
 UBDSV06 SAVING              RIV IN MODEL GEO_MODEL        PACKAGE GEO_MODEL       CONNECTED TO MODEL GEO_MODEL        PACKAGE RIV_0            ON UNIT   1017 AT TIME STEP      1, STRESS PERIOD      1
 UBDSV06 SAVING              GHB IN MODEL GEO_MODEL        PACKAGE GEO_MODEL       CONNECTED TO MODEL GEO_MODEL        PACKAGE GHB_0            ON UNIT   1017 AT TIME STEP      1, STRESS PERIOD      1
 UBDSV06 SAVING              RCH IN MODEL GEO_MODEL        PACKAGE GEO_MODEL       CONNECTED TO MODEL GEO_MODEL        PACKAGE RCH_0            ON UNIT   1017 AT TIME STEP      1, STRESS PERIOD      1
 UBDSV06 SAVING            EVTA  IN MODEL GEO_MODEL        PACKAGE GEO_MODEL       CONNECTED TO MODEL GEO_MODEL        PACKAGE EVTA_0           ON UNIT   1017 AT TIME STEP      1, STRESS PERIOD      1

 HEAD WILL BE SAVED ON UNIT 1018 AT END OF TIME STEP    1, STRESS PERIOD    1


  VOLUME BUDGET FOR ENTIRE MODEL AT END OF TIME STEP    1, STRESS PERIOD   1
  ---------------------------------------------------------------------------------------------------

     CUMULATIVE VOLUME      L**3       RATES FOR THIS TIME STEP      L**3/T          PACKAGE NAME    
     ------------------                 ------------------------                     ----------------

           IN:                                      IN:
           ---                                      ---
              STO-SS =         234.7552                STO-SS =         234.7552     STORAGE                          
                 WEL =           0.0000                   WEL =           0.0000     WEL_0                            
                 RIV =       3.4659E-02                   RIV =       3.4659E-02     RIV_0                            
                 GHB =           0.0000                   GHB =           0.0000     GHB_0                            
                 RCH =       3.0849E-02                   RCH =       3.0849E-02     RCH_0                            
                EVTA =           0.0000                  EVTA =           0.0000     EVTA_0                           

            TOTAL IN =         234.8207              TOTAL IN =         234.8207

          OUT:                                     OUT:
          ----                                     ----
              STO-SS =         231.3628                STO-SS =         231.3628     STORAGE                          
                 WEL =           0.0000                   WEL =           0.0000     WEL_0                            
                 RIV =       3.9883E-02                   RIV =       3.9883E-02     RIV_0                            
                 GHB =           3.2267                   GHB =           3.2267     GHB_0                            
                 RCH =           0.0000                   RCH =           0.0000     RCH_0                            
                EVTA =           0.1914                  EVTA =           0.1914     EVTA_0                           

           TOTAL OUT =         234.8207             TOTAL OUT =         234.8207

            IN - OUT =       3.5201E-07              IN - OUT =       3.5201E-07

 PERCENT DISCREPANCY =           0.00     PERCENT DISCREPANCY =           0.00




         TIME SUMMARY AT END OF TIME STEP    1 IN STRESS PERIOD    1
                    SECONDS     MINUTES      HOURS       DAYS        YEARS
                    -----------------------------------------------------------
   TIME STEP LENGTH  1.0000     1.66667E-02 2.77778E-04 1.15741E-05 3.16881E-08
 STRESS PERIOD TIME  1.0000     1.66667E-02 2.77778E-04 1.15741E-05 3.16881E-08
         TOTAL TIME  1.0000     1.66667E-02 2.77778E-04 1.15741E-05 3.16881E-08


end timestep


start timestep kper="2" kstp="1" mode="normal"


 END OF FILE DETECTED IN OUTPUT CONTROL.
 CURRENT OUTPUT CONTROL SETTINGS WILL BE 
 REPEATED UNTIL THE END OF THE SIMULATION.

 OUTPUT CONTROL FOR STRESS PERIOD 2 IS REPEATED USING SETTINGS FROM A PREVIOUS STRESS PERIOD.


 STRESS PERIOD 2 IS TRANSIENT


 REUSING RIVS FROM LAST STRESS PERIOD

 REUSING GHBS FROM LAST STRESS PERIOD

 REUSING RCHS FROM LAST STRESS PERIOD

 REUSING EVTS FROM LAST STRESS PERIOD
 UBDSV1 SAVING           STO-SS ON UNIT   1017 AT TIME STEP      1, STRESS PERIOD      2
 UBDSV1 SAVING     FLOW-JA-FACE ON UNIT   1017 AT TIME STEP      1, STRESS PERIOD      2
 UBDSV06 SAVING       DATA-SPDIS IN MODEL GEO_MODEL        PACKAGE NPF             CONNECTED TO MODEL GEO_MODEL        PACKAGE NPF              ON UNIT   1017 AT TIME STEP      1, STRESS PERIOD      2
 UBDSV06 SAVING              WEL IN MODEL GEO_MODEL        PACKAGE GEO_MODEL       CONNECTED TO MODEL GEO_MODEL        PACKAGE WEL_0            ON UNIT   1017 AT TIME STEP      1, STRESS PERIOD      2
 UBDSV06 SAVING              RIV IN MODEL GEO_MODEL        PACKAGE GEO_MODEL       CONNECTED TO MODEL GEO_MODEL        PACKAGE RIV_0            ON UNIT   1017 AT TIME STEP      1, STRESS PERIOD      2
 UBDSV06 SAVING              GHB IN MODEL GEO_MODEL        PACKAGE GEO_MODEL       CONNECTED TO MODEL GEO_MODEL        PACKAGE GHB_0            ON UNIT   1017 AT TIME STEP      1, STRESS PERIOD      2
 UBDSV06 SAVING              RCH IN MODEL GEO_MODEL        PACKAGE GEO_MODEL       CONNECTED TO MODEL GEO_MODEL        PACKAGE RCH_0            ON UNIT   1017 AT TIME STEP      1, STRESS PERIOD      2
 UBDSV06 SAVING            EVTA  IN MODEL GEO_MODEL        PACKAGE GEO_MODEL       CONNECTED TO MODEL GEO_MODEL        PACKAGE EVTA_0           ON UNIT   1017 AT TIME STEP      1, STRESS PERIOD      2

 HEAD WILL BE SAVED ON UNIT 1018 AT END OF TIME STEP    1, STRESS PERIOD    2

end timestep


start timestep kper="2" kstp="2" mode="normal"

 UBDSV1 SAVING           STO-SS ON UNIT   1017 AT TIME STEP      2, STRESS PERIOD      2
 UBDSV1 SAVING     FLOW-JA-FACE ON UNIT   1017 AT TIME STEP      2, STRESS PERIOD      2
 UBDSV06 SAVING       DATA-SPDIS IN MODEL GEO_MODEL        PACKAGE NPF             CONNECTED TO MODEL GEO_MODEL        PACKAGE NPF              ON UNIT   1017 AT TIME STEP      2, STRESS PERIOD      2
 UBDSV06 SAVING              WEL IN MODEL GEO_MODEL        PACKAGE GEO_MODEL       CONNECTED TO MODEL GEO_MODEL        PACKAGE WEL_0            ON UNIT   1017 AT TIME STEP      2, STRESS PERIOD      2
 UBDSV06 SAVING              RIV IN MODEL GEO_MODEL        PACKAGE GEO_MODEL       CONNECTED TO MODEL GEO_MODEL        PACKAGE RIV_0            ON UNIT   1017 AT TIME STEP      2, STRESS PERIOD      2
 UBDSV06 SAVING              GHB IN MODEL GEO_MODEL        PACKAGE GEO_MODEL       CONNECTED TO MODEL GEO_MODEL        PACKAGE GHB_0            ON UNIT   1017 AT TIME STEP      2, STRESS PERIOD      2
 UBDSV06 SAVING              RCH IN MODEL GEO_MODEL        PACKAGE GEO_MODEL       CONNECTED TO MODEL GEO_MODEL        PACKAGE RCH_0            ON UNIT   1017 AT TIME STEP      2, STRESS PERIOD      2
 UBDSV06 SAVING            EVTA  IN MODEL GEO_MODEL        PACKAGE GEO_MODEL       CONNECTED TO MODEL GEO_MODEL        PACKAGE EVTA_0           ON UNIT   1017 AT TIME STEP      2, STRESS PERIOD      2

 HEAD WILL BE SAVED ON UNIT 1018 AT END OF TIME STEP    2, STRESS PERIOD    2

end timestep


start timestep kper="2" kstp="3" mode="normal"

 UBDSV1 SAVING           STO-SS ON UNIT   1017 AT TIME STEP      3, STRESS PERIOD      2
 UBDSV1 SAVING     FLOW-JA-FACE ON UNIT   1017 AT TIME STEP      3, STRESS PERIOD      2
 UBDSV06 SAVING       DATA-SPDIS IN MODEL GEO_MODEL        PACKAGE NPF             CONNECTED TO MODEL GEO_MODEL        PACKAGE NPF              ON UNIT   1017 AT TIME STEP      3, STRESS PERIOD      2
 UBDSV06 SAVING              WEL IN MODEL GEO_MODEL        PACKAGE GEO_MODEL       CONNECTED TO MODEL GEO_MODEL        PACKAGE WEL_0            ON UNIT   1017 AT TIME STEP      3, STRESS PERIOD      2
 UBDSV06 SAVING              RIV IN MODEL GEO_MODEL        PACKAGE GEO_MODEL       CONNECTED TO MODEL GEO_MODEL        PACKAGE RIV_0            ON UNIT   1017 AT TIME STEP      3, STRESS PERIOD      2
 UBDSV06 SAVING              GHB IN MODEL GEO_MODEL        PACKAGE GEO_MODEL       CONNECTED TO MODEL GEO_MODEL        PACKAGE GHB_0            ON UNIT   1017 AT TIME STEP      3, STRESS PERIOD      2
 UBDSV06 SAVING              RCH IN MODEL GEO_MODEL        PACKAGE GEO_MODEL       CONNECTED TO MODEL GEO_MODEL        PACKAGE RCH_0            ON UNIT   1017 AT TIME STEP      3, STRESS PERIOD      2
 UBDSV06 SAVING            EVTA  IN MODEL GEO_MODEL        PACKAGE GEO_MODEL       CONNECTED TO MODEL GEO_MODEL        PACKAGE EVTA_0           ON UNIT   1017 AT TIME STEP      3, STRESS PERIOD      2

 HEAD WILL BE SAVED ON UNIT 1018 AT END OF TIME STEP    3, STRESS PERIOD    2

end timestep


start timestep kper="2" kstp="4" mode="normal"

 UBDSV1 SAVING           STO-SS ON UNIT   1017 AT TIME STEP      4, STRESS PERIOD      2
 UBDSV1 SAVING     FLOW-JA-FACE ON UNIT   1017 AT TIME STEP      4, STRESS PERIOD      2
 UBDSV06 SAVING       DATA-SPDIS IN MODEL GEO_MODEL        PACKAGE NPF             CONNECTED TO MODEL GEO_MODEL        PACKAGE NPF              ON UNIT   1017 AT TIME STEP      4, STRESS PERIOD      2
 UBDSV06 SAVING              WEL IN MODEL GEO_MODEL        PACKAGE GEO_MODEL       CONNECTED TO MODEL GEO_MODEL        PACKAGE WEL_0            ON UNIT   1017 AT TIME STEP      4, STRESS PERIOD      2
 UBDSV06 SAVING              RIV IN MODEL GEO_MODEL        PACKAGE GEO_MODEL       CONNECTED TO MODEL GEO_MODEL        PACKAGE RIV_0            ON UNIT   1017 AT TIME STEP      4, STRESS PERIOD      2
 UBDSV06 SAVING              GHB IN MODEL GEO_MODEL        PACKAGE GEO_MODEL       CONNECTED TO MODEL GEO_MODEL        PACKAGE GHB_0            ON UNIT   1017 AT TIME STEP      4, STRESS PERIOD      2
 UBDSV06 SAVING              RCH IN MODEL GEO_MODEL        PACKAGE GEO_MODEL       CONNECTED TO MODEL GEO_MODEL        PACKAGE RCH_0            ON UNIT   1017 AT TIME STEP      4, STRESS PERIOD      2
 UBDSV06 SAVING            EVTA  IN MODEL GEO_MODEL        PACKAGE GEO_MODEL       CONNECTED TO MODEL GEO_MODEL        PACKAGE EVTA_0           ON UNIT   1017 AT TIME STEP      4, STRESS PERIOD      2

 HEAD WILL BE SAVED ON UNIT 1018 AT END OF TIME STEP    4, STRESS PERIOD    2


  VOLUME BUDGET FOR ENTIRE MODEL AT END OF TIME STEP    4, STRESS PERIOD   2
  ---------------------------------------------------------------------------------------------------

     CUMULATIVE VOLUME      L**3       RATES FOR THIS TIME STEP      L**3/T          PACKAGE NAME    
     ------------------                 ------------------------                     ----------------

           IN:                                      IN:
           ---                                      ---
              STO-SS =       87589.8285                STO-SS =       1.4586E-07     STORAGE                          
                 WEL =           0.0000                   WEL =           0.0000     WEL_0                            
                 RIV =    13291876.6539                   RIV =           0.7711     RIV_0                            
                 GHB =     5695953.1934                   GHB =           0.3307     GHB_0                            
                 RCH =      533068.0646                   RCH =       3.0849E-02     RCH_0                            
                EVTA =           0.0000                  EVTA =           0.0000     EVTA_0                           

            TOTAL IN =    19608487.7403              TOTAL IN =           1.1327

          OUT:                                     OUT:
          ----                                     ----
              STO-SS =        3502.7911                STO-SS =       5.7842E-08     STORAGE                          
                 WEL =     7776000.0000                   WEL =           0.4500     WEL_0                            
                 RIV =     7216494.6492                   RIV =           0.4166     RIV_0                            
                 GHB =     4167832.7341                   GHB =           0.2407     GHB_0                            
                 RCH =           0.0000                   RCH =           0.0000     RCH_0                            
                EVTA =      459423.9259                  EVTA =       2.6510E-02     EVTA_0                           

           TOTAL OUT =    19623254.1003             TOTAL OUT =           1.1338

            IN - OUT =      -14766.3600              IN - OUT =      -1.1374E-03

 PERCENT DISCREPANCY =          -0.08     PERCENT DISCREPANCY =          -0.10




         TIME SUMMARY AT END OF TIME STEP    4 IN STRESS PERIOD    2
                    SECONDS     MINUTES      HOURS       DAYS        YEARS
                    -----------------------------------------------------------
   TIME STEP LENGTH 4.32000E+06  72000.      1200.0      50.000     0.13689    
 STRESS PERIOD TIME 1.72800E+07 2.88000E+05  4800.0      200.00     0.54757    
         TOTAL TIME 1.72800E+07 2.88000E+05  4800.0      200.00     0.54757    


end timestep


start timestep kper="3" kstp="1" mode="normal"


 OUTPUT CONTROL FOR STRESS PERIOD 3 IS REPEATED USING SETTINGS FROM A PREVIOUS STRESS PERIOD.


 STRESS PERIOD 3 IS TRANSIENT


 REUSING WELS FROM LAST STRESS PERIOD

 REUSING RIVS FROM LAST STRESS PERIOD

 REUSING GHBS FROM LAST STRESS PERIOD

 REUSING RCHS FROM LAST STRESS PERIOD

 REUSING EVTS FROM LAST STRESS PERIOD
 UBDSV1 SAVING           STO-SS ON UNIT   1017 AT TIME STEP      1, STRESS PERIOD      3
 UBDSV1 SAVING     FLOW-JA-FACE ON UNIT   1017 AT TIME STEP      1, STRESS PERIOD      3
 UBDSV06 SAVING       DATA-SPDIS IN MODEL GEO_MODEL        PACKAGE NPF             CONNECTED TO MODEL GEO_MODEL        PACKAGE NPF              ON UNIT   1017 AT TIME STEP      1, STRESS PERIOD      3
 UBDSV06 SAVING              WEL IN MODEL GEO_MODEL        PACKAGE GEO_MODEL       CONNECTED TO MODEL GEO_MODEL        PACKAGE WEL_0            ON UNIT   1017 AT TIME STEP      1, STRESS PERIOD      3
 UBDSV06 SAVING              RIV IN MODEL GEO_MODEL        PACKAGE GEO_MODEL       CONNECTED TO MODEL GEO_MODEL        PACKAGE RIV_0            ON UNIT   1017 AT TIME STEP      1, STRESS PERIOD      3
 UBDSV06 SAVING              GHB IN MODEL GEO_MODEL        PACKAGE GEO_MODEL       CONNECTED TO MODEL GEO_MODEL        PACKAGE GHB_0            ON UNIT   1017 AT TIME STEP      1, STRESS PERIOD      3
 UBDSV06 SAVING              RCH IN MODEL GEO_MODEL        PACKAGE GEO_MODEL       CONNECTED TO MODEL GEO_MODEL        PACKAGE RCH_0            ON UNIT   1017 AT TIME STEP      1, STRESS PERIOD      3
 UBDSV06 SAVING            EVTA  IN MODEL GEO_MODEL        PACKAGE GEO_MODEL       CONNECTED TO MODEL GEO_MODEL        PACKAGE EVTA_0           ON UNIT   1017 AT TIME STEP      1, STRESS PERIOD      3

 HEAD WILL BE SAVED ON UNIT 1018 AT END OF TIME STEP    1, STRESS PERIOD    3

end timestep


start timestep kper="3" kstp="2" mode="normal"

 UBDSV1 SAVING           STO-SS ON UNIT   1017 AT TIME STEP      2, STRESS PERIOD      3
 UBDSV1 SAVING     FLOW-JA-FACE ON UNIT   1017 AT TIME STEP      2, STRESS PERIOD      3
 UBDSV06 SAVING       DATA-SPDIS IN MODEL GEO_MODEL        PACKAGE NPF             CONNECTED TO MODEL GEO_MODEL        PACKAGE NPF              ON UNIT   1017 AT TIME STEP      2, STRESS PERIOD      3
 UBDSV06 SAVING              WEL IN MODEL GEO_MODEL        PACKAGE GEO_MODEL       CONNECTED TO MODEL GEO_MODEL        PACKAGE WEL_0            ON UNIT   1017 AT TIME STEP      2, STRESS PERIOD      3
 UBDSV06 SAVING              RIV IN MODEL GEO_MODEL        PACKAGE GEO_MODEL       CONNECTED TO MODEL GEO_MODEL        PACKAGE RIV_0            ON UNIT   1017 AT TIME STEP      2, STRESS PERIOD      3
 UBDSV06 SAVING              GHB IN MODEL GEO_MODEL        PACKAGE GEO_MODEL       CONNECTED TO MODEL GEO_MODEL        PACKAGE GHB_0            ON UNIT   1017 AT TIME STEP      2, STRESS PERIOD      3
 UBDSV06 SAVING              RCH IN MODEL GEO_MODEL        PACKAGE GEO_MODEL       CONNECTED TO MODEL GEO_MODEL        PACKAGE RCH_0            ON UNIT   1017 AT TIME STEP      2, STRESS PERIOD      3
 UBDSV06 SAVING            EVTA  IN MODEL GEO_MODEL        PACKAGE GEO_MODEL       CONNECTED TO MODEL GEO_MODEL        PACKAGE EVTA_0           ON UNIT   1017 AT TIME STEP      2, STRESS PERIOD      3

 HEAD WILL BE SAVED ON UNIT 1018 AT END OF TIME STEP    2, STRESS PERIOD    3

end timestep


start timestep kper="3" kstp="3" mode="normal"

 UBDSV1 SAVING           STO-SS ON UNIT   1017 AT TIME STEP      3, STRESS PERIOD      3
 UBDSV1 SAVING     FLOW-JA-FACE ON UNIT   1017 AT TIME STEP      3, STRESS PERIOD      3
 UBDSV06 SAVING       DATA-SPDIS IN MODEL GEO_MODEL        PACKAGE NPF             CONNECTED TO MODEL GEO_MODEL        PACKAGE NPF              ON UNIT   1017 AT TIME STEP      3, STRESS PERIOD      3
 UBDSV06 SAVING              WEL IN MODEL GEO_MODEL        PACKAGE GEO_MODEL       CONNECTED TO MODEL GEO_MODEL        PACKAGE WEL_0            ON UNIT   1017 AT TIME STEP      3, STRESS PERIOD      3
 UBDSV06 SAVING              RIV IN MODEL GEO_MODEL        PACKAGE GEO_MODEL       CONNECTED TO MODEL GEO_MODEL        PACKAGE RIV_0            ON UNIT   1017 AT TIME STEP      3, STRESS PERIOD      3
 UBDSV06 SAVING              GHB IN MODEL GEO_MODEL        PACKAGE GEO_MODEL       CONNECTED TO MODEL GEO_MODEL        PACKAGE GHB_0            ON UNIT   1017 AT TIME STEP      3, STRESS PERIOD      3
 UBDSV06 SAVING              RCH IN MODEL GEO_MODEL        PACKAGE GEO_MODEL       CONNECTED TO MODEL GEO_MODEL        PACKAGE RCH_0            ON UNIT   1017 AT TIME STEP      3, STRESS PERIOD      3
 UBDSV06 SAVING            EVTA  IN MODEL GEO_MODEL        PACKAGE GEO_MODEL       CONNECTED TO MODEL GEO_MODEL        PACKAGE EVTA_0           ON UNIT   1017 AT TIME STEP      3, STRESS PERIOD      3

 HEAD WILL BE SAVED ON UNIT 1018 AT END OF TIME STEP    3, STRESS PERIOD    3

end timestep


start timestep kper="3" kstp="4" mode="normal"

 UBDSV1 SAVING           STO-SS ON UNIT   1017 AT TIME STEP      4, STRESS PERIOD      3
 UBDSV1 SAVING     FLOW-JA-FACE ON UNIT   1017 AT TIME STEP      4, STRESS PERIOD      3
 UBDSV06 SAVING       DATA-SPDIS IN MODEL GEO_MODEL        PACKAGE NPF             CONNECTED TO MODEL GEO_MODEL        PACKAGE NPF              ON UNIT   1017 AT TIME STEP      4, STRESS PERIOD      3
 UBDSV06 SAVING              WEL IN MODEL GEO_MODEL        PACKAGE GEO_MODEL       CONNECTED TO MODEL GEO_MODEL        PACKAGE WEL_0            ON UNIT   1017 AT TIME STEP      4, STRESS PERIOD      3
 UBDSV06 SAVING              RIV IN MODEL GEO_MODEL        PACKAGE GEO_MODEL       CONNECTED TO MODEL GEO_MODEL        PACKAGE RIV_0            ON UNIT   1017 AT TIME STEP      4, STRESS PERIOD      3
 UBDSV06 SAVING              GHB IN MODEL GEO_MODEL        PACKAGE GEO_MODEL       CONNECTED TO MODEL GEO_MODEL        PACKAGE GHB_0            ON UNIT   1017 AT TIME STEP      4, STRESS PERIOD      3
 UBDSV06 SAVING              RCH IN MODEL GEO_MODEL        PACKAGE GEO_MODEL       CONNECTED TO MODEL GEO_MODEL        PACKAGE RCH_0            ON UNIT   1017 AT TIME STEP      4, STRESS PERIOD      3
 UBDSV06 SAVING            EVTA  IN MODEL GEO_MODEL        PACKAGE GEO_MODEL       CONNECTED TO MODEL GEO_MODEL        PACKAGE EVTA_0           ON UNIT   1017 AT TIME STEP      4, STRESS PERIOD      3

 HEAD WILL BE SAVED ON UNIT 1018 AT END OF TIME STEP    4, STRESS PERIOD    3


  VOLUME BUDGET FOR ENTIRE MODEL AT END OF TIME STEP    4, STRESS PERIOD   3
  ---------------------------------------------------------------------------------------------------

     CUMULATIVE VOLUME      L**3       RATES FOR THIS TIME STEP      L**3/T          PACKAGE NAME    
     ------------------                 ------------------------                     ----------------

           IN:                                      IN:
           ---                                      ---
              STO-SS =       87632.9210                STO-SS =       1.0551E-07     STORAGE                          
                 WEL =           0.0000                   WEL =           0.0000     WEL_0                            
                 RIV =    26618355.3118                   RIV =           0.7713     RIV_0                            
                 GHB =    11411240.6425                   GHB =           0.3308     GHB_0                            
                 RCH =     1066136.0983                   RCH =       3.0849E-02     RCH_0                            
                EVTA =           0.0000                  EVTA =           0.0000     EVTA_0                           

            TOTAL IN =    39183364.9736              TOTAL IN =           1.1329

          OUT:                                     OUT:
          ----                                     ----
              STO-SS =        3503.4428                STO-SS =       3.5365E-08     STORAGE                          
                 WEL =    15552000.0000                   WEL =           0.4500     WEL_0                            
                 RIV =    14411383.2234                   RIV =           0.4162     RIV_0                            
                 GHB =     8325442.5662                   GHB =           0.2405     GHB_0                            
                 RCH =           0.0000                   RCH =           0.0000     RCH_0                            
                EVTA =      917236.3214                  EVTA =       2.6480E-02     EVTA_0                           

           TOTAL OUT =    39209565.5538             TOTAL OUT =           1.1332

            IN - OUT =      -26200.5802              IN - OUT =      -2.4554E-04

 PERCENT DISCREPANCY =          -0.07     PERCENT DISCREPANCY =          -0.02




         TIME SUMMARY AT END OF TIME STEP    4 IN STRESS PERIOD    3
                    SECONDS     MINUTES      HOURS       DAYS        YEARS
                    -----------------------------------------------------------
   TIME STEP LENGTH 4.32000E+06  72000.      1200.0      50.000     0.13689    
 STRESS PERIOD TIME 1.72800E+07 2.88000E+05  4800.0      200.00     0.54757    
         TOTAL TIME 3.45600E+07 5.76000E+05  9600.0      400.00      1.0951    


end timestep


start timestep kper="4" kstp="1" mode="normal"


 OUTPUT CONTROL FOR STRESS PERIOD 4 IS REPEATED USING SETTINGS FROM A PREVIOUS STRESS PERIOD.


 STRESS PERIOD 4 IS TRANSIENT


 REUSING WELS FROM LAST STRESS PERIOD

 REUSING RIVS FROM LAST STRESS PERIOD

 REUSING GHBS FROM LAST STRESS PERIOD

 REUSING RCHS FROM LAST STRESS PERIOD

 REUSING EVTS FROM LAST STRESS PERIOD
 UBDSV1 SAVING           STO-SS ON UNIT   1017 AT TIME STEP      1, STRESS PERIOD      4
 UBDSV1 SAVING     FLOW-JA-FACE ON UNIT   1017 AT TIME STEP      1, STRESS PERIOD      4
 UBDSV06 SAVING       DATA-SPDIS IN MODEL GEO_MODEL        PACKAGE NPF             CONNECTED TO MODEL GEO_MODEL        PACKAGE NPF              ON UNIT   1017 AT TIME STEP      1, STRESS PERIOD      4
 UBDSV06 SAVING              WEL IN MODEL GEO_MODEL        PACKAGE GEO_MODEL       CONNECTED TO MODEL GEO_MODEL        PACKAGE WEL_0            ON UNIT   1017 AT TIME STEP      1, STRESS PERIOD      4
 UBDSV06 SAVING              RIV IN MODEL GEO_MODEL        PACKAGE GEO_MODEL       CONNECTED TO MODEL GEO_MODEL        PACKAGE RIV_0            ON UNIT   1017 AT TIME STEP      1, STRESS PERIOD      4
 UBDSV06 SAVING              GHB IN MODEL GEO_MODEL        PACKAGE GEO_MODEL       CONNECTED TO MODEL GEO_MODEL        PACKAGE GHB_0            ON UNIT   1017 AT TIME STEP      1, STRESS PERIOD      4
 UBDSV06 SAVING              RCH IN MODEL GEO_MODEL        PACKAGE GEO_MODEL       CONNECTED TO MODEL GEO_MODEL        PACKAGE RCH_0            ON UNIT   1017 AT TIME STEP      1, STRESS PERIOD      4
 UBDSV06 SAVING            EVTA  IN MODEL GEO_MODEL        PACKAGE GEO_MODEL       CONNECTED TO MODEL GEO_MODEL        PACKAGE EVTA_0           ON UNIT   1017 AT TIME STEP      1, STRESS PERIOD      4

 HEAD WILL BE SAVED ON UNIT 1018 AT END OF TIME STEP    1, STRESS PERIOD    4

end timestep


start timestep kper="4" kstp="2" mode="normal"

 UBDSV1 SAVING           STO-SS ON UNIT   1017 AT TIME STEP      2, STRESS PERIOD      4
 UBDSV1 SAVING     FLOW-JA-FACE ON UNIT   1017 AT TIME STEP      2, STRESS PERIOD      4
 UBDSV06 SAVING       DATA-SPDIS IN MODEL GEO_MODEL        PACKAGE NPF             CONNECTED TO MODEL GEO_MODEL        PACKAGE NPF              ON UNIT   1017 AT TIME STEP      2, STRESS PERIOD      4
 UBDSV06 SAVING              WEL IN MODEL GEO_MODEL        PACKAGE GEO_MODEL       CONNECTED TO MODEL GEO_MODEL        PACKAGE WEL_0            ON UNIT   1017 AT TIME STEP      2, STRESS PERIOD      4
 UBDSV06 SAVING              RIV IN MODEL GEO_MODEL        PACKAGE GEO_MODEL       CONNECTED TO MODEL GEO_MODEL        PACKAGE RIV_0            ON UNIT   1017 AT TIME STEP      2, STRESS PERIOD      4
 UBDSV06 SAVING              GHB IN MODEL GEO_MODEL        PACKAGE GEO_MODEL       CONNECTED TO MODEL GEO_MODEL        PACKAGE GHB_0            ON UNIT   1017 AT TIME STEP      2, STRESS PERIOD      4
 UBDSV06 SAVING              RCH IN MODEL GEO_MODEL        PACKAGE GEO_MODEL       CONNECTED TO MODEL GEO_MODEL        PACKAGE RCH_0            ON UNIT   1017 AT TIME STEP      2, STRESS PERIOD      4
 UBDSV06 SAVING            EVTA  IN MODEL GEO_MODEL        PACKAGE GEO_MODEL       CONNECTED TO MODEL GEO_MODEL        PACKAGE EVTA_0           ON UNIT   1017 AT TIME STEP      2, STRESS PERIOD      4

 HEAD WILL BE SAVED ON UNIT 1018 AT END OF TIME STEP    2, STRESS PERIOD    4

end timestep


start timestep kper="4" kstp="3" mode="normal"

 UBDSV1 SAVING           STO-SS ON UNIT   1017 AT TIME STEP      3, STRESS PERIOD      4
 UBDSV1 SAVING     FLOW-JA-FACE ON UNIT   1017 AT TIME STEP      3, STRESS PERIOD      4
 UBDSV06 SAVING       DATA-SPDIS IN MODEL GEO_MODEL        PACKAGE NPF             CONNECTED TO MODEL GEO_MODEL        PACKAGE NPF              ON UNIT   1017 AT TIME STEP      3, STRESS PERIOD      4
 UBDSV06 SAVING              WEL IN MODEL GEO_MODEL        PACKAGE GEO_MODEL       CONNECTED TO MODEL GEO_MODEL        PACKAGE WEL_0            ON UNIT   1017 AT TIME STEP      3, STRESS PERIOD      4
 UBDSV06 SAVING              RIV IN MODEL GEO_MODEL        PACKAGE GEO_MODEL       CONNECTED TO MODEL GEO_MODEL        PACKAGE RIV_0            ON UNIT   1017 AT TIME STEP      3, STRESS PERIOD      4
 UBDSV06 SAVING              GHB IN MODEL GEO_MODEL        PACKAGE GEO_MODEL       CONNECTED TO MODEL GEO_MODEL        PACKAGE GHB_0            ON UNIT   1017 AT TIME STEP      3, STRESS PERIOD      4
 UBDSV06 SAVING              RCH IN MODEL GEO_MODEL        PACKAGE GEO_MODEL       CONNECTED TO MODEL GEO_MODEL        PACKAGE RCH_0            ON UNIT   1017 AT TIME STEP      3, STRESS PERIOD      4
 UBDSV06 SAVING            EVTA  IN MODEL GEO_MODEL        PACKAGE GEO_MODEL       CONNECTED TO MODEL GEO_MODEL        PACKAGE EVTA_0           ON UNIT   1017 AT TIME STEP      3, STRESS PERIOD      4

 HEAD WILL BE SAVED ON UNIT 1018 AT END OF TIME STEP    3, STRESS PERIOD    4

end timestep


start timestep kper="4" kstp="4" mode="normal"

 UBDSV1 SAVING           STO-SS ON UNIT   1017 AT TIME STEP      4, STRESS PERIOD      4
 UBDSV1 SAVING     FLOW-JA-FACE ON UNIT   1017 AT TIME STEP      4, STRESS PERIOD      4
 UBDSV06 SAVING       DATA-SPDIS IN MODEL GEO_MODEL        PACKAGE NPF             CONNECTED TO MODEL GEO_MODEL        PACKAGE NPF              ON UNIT   1017 AT TIME STEP      4, STRESS PERIOD      4
 UBDSV06 SAVING              WEL IN MODEL GEO_MODEL        PACKAGE GEO_MODEL       CONNECTED TO MODEL GEO_MODEL        PACKAGE WEL_0            ON UNIT   1017 AT TIME STEP      4, STRESS PERIOD      4
 UBDSV06 SAVING              RIV IN MODEL GEO_MODEL        PACKAGE GEO_MODEL       CONNECTED TO MODEL GEO_MODEL        PACKAGE RIV_0            ON UNIT   1017 AT TIME STEP      4, STRESS PERIOD      4
 UBDSV06 SAVING              GHB IN MODEL GEO_MODEL        PACKAGE GEO_MODEL       CONNECTED TO MODEL GEO_MODEL        PACKAGE GHB_0            ON UNIT   1017 AT TIME STEP      4, STRESS PERIOD      4
 UBDSV06 SAVING              RCH IN MODEL GEO_MODEL        PACKAGE GEO_MODEL       CONNECTED TO MODEL GEO_MODEL        PACKAGE RCH_0            ON UNIT   1017 AT TIME STEP      4, STRESS PERIOD      4
 UBDSV06 SAVING            EVTA  IN MODEL GEO_MODEL        PACKAGE GEO_MODEL       CONNECTED TO MODEL GEO_MODEL        PACKAGE EVTA_0           ON UNIT   1017 AT TIME STEP      4, STRESS PERIOD      4

 HEAD WILL BE SAVED ON UNIT 1018 AT END OF TIME STEP    4, STRESS PERIOD    4


  VOLUME BUDGET FOR ENTIRE MODEL AT END OF TIME STEP    4, STRESS PERIOD   4
  ---------------------------------------------------------------------------------------------------

     CUMULATIVE VOLUME      L**3       RATES FOR THIS TIME STEP      L**3/T          PACKAGE NAME    
     ------------------                 ------------------------                     ----------------

           IN:                                      IN:
           ---                                      ---
              STO-SS =       87634.1662                STO-SS =       1.2662E-07     STORAGE                          
                 WEL =           0.0000                   WEL =           0.0000     WEL_0                            
                 RIV =    39947193.8523                   RIV =           0.7713     RIV_0                            
                 GHB =    17126675.0780                   GHB =           0.3308     GHB_0                            
                 RCH =     1599204.1320                   RCH =       3.0849E-02     RCH_0                            
                EVTA =           0.0000                  EVTA =           0.0000     EVTA_0                           

            TOTAL IN =    58760707.2285              TOTAL IN =           1.1330

          OUT:                                     OUT:
          ----                                     ----
              STO-SS =        3503.4877                STO-SS =       3.6781E-10     STORAGE                          
                 WEL =    23328000.0000                   WEL =           0.4500     WEL_0                            
                 RIV =    21603515.5214                   RIV =           0.4162     RIV_0                            
                 GHB =    12481197.2834                   GHB =           0.2405     GHB_0                            
                 RCH =           0.0000                   RCH =           0.0000     RCH_0                            
                EVTA =     1374805.2396                  EVTA =       2.6480E-02     EVTA_0                           

           TOTAL OUT =    58791021.5321             TOTAL OUT =           1.1332

            IN - OUT =      -30314.3036              IN - OUT =      -2.3050E-04

 PERCENT DISCREPANCY =          -0.05     PERCENT DISCREPANCY =          -0.02




         TIME SUMMARY AT END OF TIME STEP    4 IN STRESS PERIOD    4
                    SECONDS     MINUTES      HOURS       DAYS        YEARS
                    -----------------------------------------------------------
   TIME STEP LENGTH 4.32000E+06  72000.      1200.0      50.000     0.13689    
 STRESS PERIOD TIME 1.72800E+07 2.88000E+05  4800.0      200.00     0.54757    
         TOTAL TIME 5.18400E+07 8.64000E+05  14400.      600.00      1.6427    


end timestep


start timestep kper="5" kstp="1" mode="normal"


 OUTPUT CONTROL FOR STRESS PERIOD 5 IS REPEATED USING SETTINGS FROM A PREVIOUS STRESS PERIOD.


 STRESS PERIOD 5 IS TRANSIENT


 REUSING WELS FROM LAST STRESS PERIOD

 REUSING RIVS FROM LAST STRESS PERIOD

 REUSING GHBS FROM LAST STRESS PERIOD

 REUSING RCHS FROM LAST STRESS PERIOD

 REUSING EVTS FROM LAST STRESS PERIOD
 UBDSV1 SAVING           STO-SS ON UNIT   1017 AT TIME STEP      1, STRESS PERIOD      5
 UBDSV1 SAVING     FLOW-JA-FACE ON UNIT   1017 AT TIME STEP      1, STRESS PERIOD      5
 UBDSV06 SAVING       DATA-SPDIS IN MODEL GEO_MODEL        PACKAGE NPF             CONNECTED TO MODEL GEO_MODEL        PACKAGE NPF              ON UNIT   1017 AT TIME STEP      1, STRESS PERIOD      5
 UBDSV06 SAVING              WEL IN MODEL GEO_MODEL        PACKAGE GEO_MODEL       CONNECTED TO MODEL GEO_MODEL        PACKAGE WEL_0            ON UNIT   1017 AT TIME STEP      1, STRESS PERIOD      5
 UBDSV06 SAVING              RIV IN MODEL GEO_MODEL        PACKAGE GEO_MODEL       CONNECTED TO MODEL GEO_MODEL        PACKAGE RIV_0            ON UNIT   1017 AT TIME STEP      1, STRESS PERIOD      5
 UBDSV06 SAVING              GHB IN MODEL GEO_MODEL        PACKAGE GEO_MODEL       CONNECTED TO MODEL GEO_MODEL        PACKAGE GHB_0            ON UNIT   1017 AT TIME STEP      1, STRESS PERIOD      5
 UBDSV06 SAVING              RCH IN MODEL GEO_MODEL        PACKAGE GEO_MODEL       CONNECTED TO MODEL GEO_MODEL        PACKAGE RCH_0            ON UNIT   1017 AT TIME STEP      1, STRESS PERIOD      5
 UBDSV06 SAVING            EVTA  IN MODEL GEO_MODEL        PACKAGE GEO_MODEL       CONNECTED TO MODEL GEO_MODEL        PACKAGE EVTA_0           ON UNIT   1017 AT TIME STEP      1, STRESS PERIOD      5

 HEAD WILL BE SAVED ON UNIT 1018 AT END OF TIME STEP    1, STRESS PERIOD    5

end timestep


start timestep kper="5" kstp="2" mode="normal"

 UBDSV1 SAVING           STO-SS ON UNIT   1017 AT TIME STEP      2, STRESS PERIOD      5
 UBDSV1 SAVING     FLOW-JA-FACE ON UNIT   1017 AT TIME STEP      2, STRESS PERIOD      5
 UBDSV06 SAVING       DATA-SPDIS IN MODEL GEO_MODEL        PACKAGE NPF             CONNECTED TO MODEL GEO_MODEL        PACKAGE NPF              ON UNIT   1017 AT TIME STEP      2, STRESS PERIOD      5
 UBDSV06 SAVING              WEL IN MODEL GEO_MODEL        PACKAGE GEO_MODEL       CONNECTED TO MODEL GEO_MODEL        PACKAGE WEL_0            ON UNIT   1017 AT TIME STEP      2, STRESS PERIOD      5
 UBDSV06 SAVING              RIV IN MODEL GEO_MODEL        PACKAGE GEO_MODEL       CONNECTED TO MODEL GEO_MODEL        PACKAGE RIV_0            ON UNIT   1017 AT TIME STEP      2, STRESS PERIOD      5
 UBDSV06 SAVING              GHB IN MODEL GEO_MODEL        PACKAGE GEO_MODEL       CONNECTED TO MODEL GEO_MODEL        PACKAGE GHB_0            ON UNIT   1017 AT TIME STEP      2, STRESS PERIOD      5
 UBDSV06 SAVING              RCH IN MODEL GEO_MODEL        PACKAGE GEO_MODEL       CONNECTED TO MODEL GEO_MODEL        PACKAGE RCH_0            ON UNIT   1017 AT TIME STEP      2, STRESS PERIOD      5
 UBDSV06 SAVING            EVTA  IN MODEL GEO_MODEL        PACKAGE GEO_MODEL       CONNECTED TO MODEL GEO_MODEL        PACKAGE EVTA_0           ON UNIT   1017 AT TIME STEP      2, STRESS PERIOD      5

 HEAD WILL BE SAVED ON UNIT 1018 AT END OF TIME STEP    2, STRESS PERIOD    5

end timestep


start timestep kper="5" kstp="3" mode="normal"

 UBDSV1 SAVING           STO-SS ON UNIT   1017 AT TIME STEP      3, STRESS PERIOD      5
 UBDSV1 SAVING     FLOW-JA-FACE ON UNIT   1017 AT TIME STEP      3, STRESS PERIOD      5
 UBDSV06 SAVING       DATA-SPDIS IN MODEL GEO_MODEL        PACKAGE NPF             CONNECTED TO MODEL GEO_MODEL        PACKAGE NPF              ON UNIT   1017 AT TIME STEP      3, STRESS PERIOD      5
 UBDSV06 SAVING              WEL IN MODEL GEO_MODEL        PACKAGE GEO_MODEL       CONNECTED TO MODEL GEO_MODEL        PACKAGE WEL_0            ON UNIT   1017 AT TIME STEP      3, STRESS PERIOD      5
 UBDSV06 SAVING              RIV IN MODEL GEO_MODEL        PACKAGE GEO_MODEL       CONNECTED TO MODEL GEO_MODEL        PACKAGE RIV_0            ON UNIT   1017 AT TIME STEP      3, STRESS PERIOD      5
 UBDSV06 SAVING              GHB IN MODEL GEO_MODEL        PACKAGE GEO_MODEL       CONNECTED TO MODEL GEO_MODEL        PACKAGE GHB_0            ON UNIT   1017 AT TIME STEP      3, STRESS PERIOD      5
 UBDSV06 SAVING              RCH IN MODEL GEO_MODEL        PACKAGE GEO_MODEL       CONNECTED TO MODEL GEO_MODEL        PACKAGE RCH_0            ON UNIT   1017 AT TIME STEP      3, STRESS PERIOD      5
 UBDSV06 SAVING            EVTA  IN MODEL GEO_MODEL        PACKAGE GEO_MODEL       CONNECTED TO MODEL GEO_MODEL        PACKAGE EVTA_0           ON UNIT   1017 AT TIME STEP      3, STRESS PERIOD      5

 HEAD WILL BE SAVED ON UNIT 1018 AT END OF TIME STEP    3, STRESS PERIOD    5

end timestep


start timestep kper="5" kstp="4" mode="normal"

 UBDSV1 SAVING           STO-SS ON UNIT   1017 AT TIME STEP      4, STRESS PERIOD      5
 UBDSV1 SAVING     FLOW-JA-FACE ON UNIT   1017 AT TIME STEP      4, STRESS PERIOD      5
 UBDSV06 SAVING       DATA-SPDIS IN MODEL GEO_MODEL        PACKAGE NPF             CONNECTED TO MODEL GEO_MODEL        PACKAGE NPF              ON UNIT   1017 AT TIME STEP      4, STRESS PERIOD      5
 UBDSV06 SAVING              WEL IN MODEL GEO_MODEL        PACKAGE GEO_MODEL       CONNECTED TO MODEL GEO_MODEL        PACKAGE WEL_0            ON UNIT   1017 AT TIME STEP      4, STRESS PERIOD      5
 UBDSV06 SAVING              RIV IN MODEL GEO_MODEL        PACKAGE GEO_MODEL       CONNECTED TO MODEL GEO_MODEL        PACKAGE RIV_0            ON UNIT   1017 AT TIME STEP      4, STRESS PERIOD      5
 UBDSV06 SAVING              GHB IN MODEL GEO_MODEL        PACKAGE GEO_MODEL       CONNECTED TO MODEL GEO_MODEL        PACKAGE GHB_0            ON UNIT   1017 AT TIME STEP      4, STRESS PERIOD      5
 UBDSV06 SAVING              RCH IN MODEL GEO_MODEL        PACKAGE GEO_MODEL       CONNECTED TO MODEL GEO_MODEL        PACKAGE RCH_0            ON UNIT   1017 AT TIME STEP      4, STRESS PERIOD      5
 UBDSV06 SAVING            EVTA  IN MODEL GEO_MODEL        PACKAGE GEO_MODEL       CONNECTED TO MODEL GEO_MODEL        PACKAGE EVTA_0           ON UNIT   1017 AT TIME STEP      4, STRESS PERIOD      5

 HEAD WILL BE SAVED ON UNIT 1018 AT END OF TIME STEP    4, STRESS PERIOD    5


  VOLUME BUDGET FOR ENTIRE MODEL AT END OF TIME STEP    4, STRESS PERIOD   5
  ---------------------------------------------------------------------------------------------------

     CUMULATIVE VOLUME      L**3       RATES FOR THIS TIME STEP      L**3/T          PACKAGE NAME    
     ------------------                 ------------------------                     ----------------

           IN:                                      IN:
           ---                                      ---
              STO-SS =       87641.0633                STO-SS =       8.6142E-08     STORAGE                          
                 WEL =           0.0000                   WEL =           0.0000     WEL_0                            
                 RIV =    53276718.6287                   RIV =           0.7714     RIV_0                            
                 GHB =    22842325.2827                   GHB =           0.3308     GHB_0                            
                 RCH =     2132272.1657                   RCH =       3.0849E-02     RCH_0                            
                EVTA =           0.0000                  EVTA =           0.0000     EVTA_0                           

            TOTAL IN =    78338957.1404              TOTAL IN =           1.1330

          OUT:                                     OUT:
          ----                                     ----
              STO-SS =        3503.5954                STO-SS =       1.9699E-08     STORAGE                          
                 WEL =    31104000.0000                   WEL =           0.4500     WEL_0                            
                 RIV =    28795157.7962                   RIV =           0.4162     RIV_0                            
                 GHB =    16636724.8220                   GHB =           0.2405     GHB_0                            
                 RCH =           0.0000                   RCH =           0.0000     RCH_0                            
                EVTA =     1832338.3469                  EVTA =       2.6477E-02     EVTA_0                           

           TOTAL OUT =    78371724.5604             TOTAL OUT =           1.1331

            IN - OUT =      -32767.4200              IN - OUT =      -1.0632E-04

 PERCENT DISCREPANCY =          -0.04     PERCENT DISCREPANCY =          -0.01




         TIME SUMMARY AT END OF TIME STEP    4 IN STRESS PERIOD    5
                    SECONDS     MINUTES      HOURS       DAYS        YEARS
                    -----------------------------------------------------------
   TIME STEP LENGTH 4.32000E+06  72000.      1200.0      50.000     0.13689    
 STRESS PERIOD TIME 1.72800E+07 2.88000E+05  4800.0      200.00     0.54757    
         TOTAL TIME 6.91200E+07 1.15200E+06  19200.      800.00      2.1903    


end timestep


start timestep kper="6" kstp="1" mode="normal"


 OUTPUT CONTROL FOR STRESS PERIOD 6 IS REPEATED USING SETTINGS FROM A PREVIOUS STRESS PERIOD.


 STRESS PERIOD 6 IS TRANSIENT


 REUSING WELS FROM LAST STRESS PERIOD

 REUSING RIVS FROM LAST STRESS PERIOD

 REUSING GHBS FROM LAST STRESS PERIOD

 REUSING RCHS FROM LAST STRESS PERIOD

 REUSING EVTS FROM LAST STRESS PERIOD
 UBDSV1 SAVING           STO-SS ON UNIT   1017 AT TIME STEP      1, STRESS PERIOD      6
 UBDSV1 SAVING     FLOW-JA-FACE ON UNIT   1017 AT TIME STEP      1, STRESS PERIOD      6
 UBDSV06 SAVING       DATA-SPDIS IN MODEL GEO_MODEL        PACKAGE NPF             CONNECTED TO MODEL GEO_MODEL        PACKAGE NPF              ON UNIT   1017 AT TIME STEP      1, STRESS PERIOD      6
 UBDSV06 SAVING              WEL IN MODEL GEO_MODEL        PACKAGE GEO_MODEL       CONNECTED TO MODEL GEO_MODEL        PACKAGE WEL_0            ON UNIT   1017 AT TIME STEP      1, STRESS PERIOD      6
 UBDSV06 SAVING              RIV IN MODEL GEO_MODEL        PACKAGE GEO_MODEL       CONNECTED TO MODEL GEO_MODEL        PACKAGE RIV_0            ON UNIT   1017 AT TIME STEP      1, STRESS PERIOD      6
 UBDSV06 SAVING              GHB IN MODEL GEO_MODEL        PACKAGE GEO_MODEL       CONNECTED TO MODEL GEO_MODEL        PACKAGE GHB_0            ON UNIT   1017 AT TIME STEP      1, STRESS PERIOD      6
 UBDSV06 SAVING              RCH IN MODEL GEO_MODEL        PACKAGE GEO_MODEL       CONNECTED TO MODEL GEO_MODEL        PACKAGE RCH_0            ON UNIT   1017 AT TIME STEP      1, STRESS PERIOD      6
 UBDSV06 SAVING            EVTA  IN MODEL GEO_MODEL        PACKAGE GEO_MODEL       CONNECTED TO MODEL GEO_MODEL        PACKAGE EVTA_0           ON UNIT   1017 AT TIME STEP      1, STRESS PERIOD      6

 HEAD WILL BE SAVED ON UNIT 1018 AT END OF TIME STEP    1, STRESS PERIOD    6

end timestep


start timestep kper="6" kstp="2" mode="normal"

 UBDSV1 SAVING           STO-SS ON UNIT   1017 AT TIME STEP      2, STRESS PERIOD      6
 UBDSV1 SAVING     FLOW-JA-FACE ON UNIT   1017 AT TIME STEP      2, STRESS PERIOD      6
 UBDSV06 SAVING       DATA-SPDIS IN MODEL GEO_MODEL        PACKAGE NPF             CONNECTED TO MODEL GEO_MODEL        PACKAGE NPF              ON UNIT   1017 AT TIME STEP      2, STRESS PERIOD      6
 UBDSV06 SAVING              WEL IN MODEL GEO_MODEL        PACKAGE GEO_MODEL       CONNECTED TO MODEL GEO_MODEL        PACKAGE WEL_0            ON UNIT   1017 AT TIME STEP      2, STRESS PERIOD      6
 UBDSV06 SAVING              RIV IN MODEL GEO_MODEL        PACKAGE GEO_MODEL       CONNECTED TO MODEL GEO_MODEL        PACKAGE RIV_0            ON UNIT   1017 AT TIME STEP      2, STRESS PERIOD      6
 UBDSV06 SAVING              GHB IN MODEL GEO_MODEL        PACKAGE GEO_MODEL       CONNECTED TO MODEL GEO_MODEL        PACKAGE GHB_0            ON UNIT   1017 AT TIME STEP      2, STRESS PERIOD      6
 UBDSV06 SAVING              RCH IN MODEL GEO_MODEL        PACKAGE GEO_MODEL       CONNECTED TO MODEL GEO_MODEL        PACKAGE RCH_0            ON UNIT   1017 AT TIME STEP      2, STRESS PERIOD      6
 UBDSV06 SAVING            EVTA  IN MODEL GEO_MODEL        PACKAGE GEO_MODEL       CONNECTED TO MODEL GEO_MODEL        PACKAGE EVTA_0           ON UNIT   1017 AT TIME STEP      2, STRESS PERIOD      6

 HEAD WILL BE SAVED ON UNIT 1018 AT END OF TIME STEP    2, STRESS PERIOD    6

end timestep


start timestep kper="6" kstp="3" mode="normal"

 UBDSV1 SAVING           STO-SS ON UNIT   1017 AT TIME STEP      3, STRESS PERIOD      6
 UBDSV1 SAVING     FLOW-JA-FACE ON UNIT   1017 AT TIME STEP      3, STRESS PERIOD      6
 UBDSV06 SAVING       DATA-SPDIS IN MODEL GEO_MODEL        PACKAGE NPF             CONNECTED TO MODEL GEO_MODEL        PACKAGE NPF              ON UNIT   1017 AT TIME STEP      3, STRESS PERIOD      6
 UBDSV06 SAVING              WEL IN MODEL GEO_MODEL        PACKAGE GEO_MODEL       CONNECTED TO MODEL GEO_MODEL        PACKAGE WEL_0            ON UNIT   1017 AT TIME STEP      3, STRESS PERIOD      6
 UBDSV06 SAVING              RIV IN MODEL GEO_MODEL        PACKAGE GEO_MODEL       CONNECTED TO MODEL GEO_MODEL        PACKAGE RIV_0            ON UNIT   1017 AT TIME STEP      3, STRESS PERIOD      6
 UBDSV06 SAVING              GHB IN MODEL GEO_MODEL        PACKAGE GEO_MODEL       CONNECTED TO MODEL GEO_MODEL        PACKAGE GHB_0            ON UNIT   1017 AT TIME STEP      3, STRESS PERIOD      6
 UBDSV06 SAVING              RCH IN MODEL GEO_MODEL        PACKAGE GEO_MODEL       CONNECTED TO MODEL GEO_MODEL        PACKAGE RCH_0            ON UNIT   1017 AT TIME STEP      3, STRESS PERIOD      6
 UBDSV06 SAVING            EVTA  IN MODEL GEO_MODEL        PACKAGE GEO_MODEL       CONNECTED TO MODEL GEO_MODEL        PACKAGE EVTA_0           ON UNIT   1017 AT TIME STEP      3, STRESS PERIOD      6

 HEAD WILL BE SAVED ON UNIT 1018 AT END OF TIME STEP    3, STRESS PERIOD    6

end timestep


start timestep kper="6" kstp="4" mode="normal"

 UBDSV1 SAVING           STO-SS ON UNIT   1017 AT TIME STEP      4, STRESS PERIOD      6
 UBDSV1 SAVING     FLOW-JA-FACE ON UNIT   1017 AT TIME STEP      4, STRESS PERIOD      6
 UBDSV06 SAVING       DATA-SPDIS IN MODEL GEO_MODEL        PACKAGE NPF             CONNECTED TO MODEL GEO_MODEL        PACKAGE NPF              ON UNIT   1017 AT TIME STEP      4, STRESS PERIOD      6
 UBDSV06 SAVING              WEL IN MODEL GEO_MODEL        PACKAGE GEO_MODEL       CONNECTED TO MODEL GEO_MODEL        PACKAGE WEL_0            ON UNIT   1017 AT TIME STEP      4, STRESS PERIOD      6
 UBDSV06 SAVING              RIV IN MODEL GEO_MODEL        PACKAGE GEO_MODEL       CONNECTED TO MODEL GEO_MODEL        PACKAGE RIV_0            ON UNIT   1017 AT TIME STEP      4, STRESS PERIOD      6
 UBDSV06 SAVING              GHB IN MODEL GEO_MODEL        PACKAGE GEO_MODEL       CONNECTED TO MODEL GEO_MODEL        PACKAGE GHB_0            ON UNIT   1017 AT TIME STEP      4, STRESS PERIOD      6
 UBDSV06 SAVING              RCH IN MODEL GEO_MODEL        PACKAGE GEO_MODEL       CONNECTED TO MODEL GEO_MODEL        PACKAGE RCH_0            ON UNIT   1017 AT TIME STEP      4, STRESS PERIOD      6
 UBDSV06 SAVING            EVTA  IN MODEL GEO_MODEL        PACKAGE GEO_MODEL       CONNECTED TO MODEL GEO_MODEL        PACKAGE EVTA_0           ON UNIT   1017 AT TIME STEP      4, STRESS PERIOD      6

 HEAD WILL BE SAVED ON UNIT 1018 AT END OF TIME STEP    4, STRESS PERIOD    6


  VOLUME BUDGET FOR ENTIRE MODEL AT END OF TIME STEP    4, STRESS PERIOD   6
  ---------------------------------------------------------------------------------------------------

     CUMULATIVE VOLUME      L**3       RATES FOR THIS TIME STEP      L**3/T          PACKAGE NAME    
     ------------------                 ------------------------                     ----------------

           IN:                                      IN:
           ---                                      ---
              STO-SS =       87642.1300                STO-SS =       2.9620E-08     STORAGE                          
                 WEL =           0.0000                   WEL =           0.0000     WEL_0                            
                 RIV =    66606607.8235                   RIV =           0.7714     RIV_0                            
                 GHB =    28558117.8726                   GHB =           0.3308     GHB_0                            
                 RCH =     2665340.1994                   RCH =       3.0849E-02     RCH_0                            
                EVTA =           0.0000                  EVTA =           0.0000     EVTA_0                           

            TOTAL IN =    97917708.0255              TOTAL IN =           1.1330

          OUT:                                     OUT:
          ----                                     ----
              STO-SS =        3503.6457                STO-SS =       7.6847E-10     STORAGE                          
                 WEL =    38880000.0000                   WEL =           0.4500     WEL_0                            
                 RIV =    35986530.4897                   RIV =           0.4162     RIV_0                            
                 GHB =    20792113.6003                   GHB =           0.2405     GHB_0                            
                 RCH =           0.0000                   RCH =           0.0000     RCH_0                            
                EVTA =     2289849.6778                  EVTA =       2.6476E-02     EVTA_0                           

           TOTAL OUT =    97951997.4135             TOTAL OUT =           1.1331

            IN - OUT =      -34289.3880              IN - OUT =      -8.0137E-05

 PERCENT DISCREPANCY =          -0.04     PERCENT DISCREPANCY =          -0.01




         TIME SUMMARY AT END OF TIME STEP    4 IN STRESS PERIOD    6
                    SECONDS     MINUTES      HOURS       DAYS        YEARS
                    -----------------------------------------------------------
   TIME STEP LENGTH 4.32000E+06  72000.      1200.0      50.000     0.13689    
 STRESS PERIOD TIME 1.72800E+07 2.88000E+05  4800.0      200.00     0.54757    
         TOTAL TIME 8.64000E+07 1.44000E+06  24000.      1000.0      2.7379    


end timestep


start timestep kper="7" kstp="1" mode="normal"


 OUTPUT CONTROL FOR STRESS PERIOD 7 IS REPEATED USING SETTINGS FROM A PREVIOUS STRESS PERIOD.


 STRESS PERIOD 7 IS TRANSIENT


 REUSING WELS FROM LAST STRESS PERIOD

 REUSING RIVS FROM LAST STRESS PERIOD

 REUSING GHBS FROM LAST STRESS PERIOD

 REUSING RCHS FROM LAST STRESS PERIOD

 REUSING EVTS FROM LAST STRESS PERIOD
 UBDSV1 SAVING           STO-SS ON UNIT   1017 AT TIME STEP      1, STRESS PERIOD      7
 UBDSV1 SAVING     FLOW-JA-FACE ON UNIT   1017 AT TIME STEP      1, STRESS PERIOD      7
 UBDSV06 SAVING       DATA-SPDIS IN MODEL GEO_MODEL        PACKAGE NPF             CONNECTED TO MODEL GEO_MODEL        PACKAGE NPF              ON UNIT   1017 AT TIME STEP      1, STRESS PERIOD      7
 UBDSV06 SAVING              WEL IN MODEL GEO_MODEL        PACKAGE GEO_MODEL       CONNECTED TO MODEL GEO_MODEL        PACKAGE WEL_0            ON UNIT   1017 AT TIME STEP      1, STRESS PERIOD      7
 UBDSV06 SAVING              RIV IN MODEL GEO_MODEL        PACKAGE GEO_MODEL       CONNECTED TO MODEL GEO_MODEL        PACKAGE RIV_0            ON UNIT   1017 AT TIME STEP      1, STRESS PERIOD      7
 UBDSV06 SAVING              GHB IN MODEL GEO_MODEL        PACKAGE GEO_MODEL       CONNECTED TO MODEL GEO_MODEL        PACKAGE GHB_0            ON UNIT   1017 AT TIME STEP      1, STRESS PERIOD      7
 UBDSV06 SAVING              RCH IN MODEL GEO_MODEL        PACKAGE GEO_MODEL       CONNECTED TO MODEL GEO_MODEL        PACKAGE RCH_0            ON UNIT   1017 AT TIME STEP      1, STRESS PERIOD      7
 UBDSV06 SAVING            EVTA  IN MODEL GEO_MODEL        PACKAGE GEO_MODEL       CONNECTED TO MODEL GEO_MODEL        PACKAGE EVTA_0           ON UNIT   1017 AT TIME STEP      1, STRESS PERIOD      7

 HEAD WILL BE SAVED ON UNIT 1018 AT END OF TIME STEP    1, STRESS PERIOD    7

end timestep


start timestep kper="7" kstp="2" mode="normal"

 UBDSV1 SAVING           STO-SS ON UNIT   1017 AT TIME STEP      2, STRESS PERIOD      7
 UBDSV1 SAVING     FLOW-JA-FACE ON UNIT   1017 AT TIME STEP      2, STRESS PERIOD      7
 UBDSV06 SAVING       DATA-SPDIS IN MODEL GEO_MODEL        PACKAGE NPF             CONNECTED TO MODEL GEO_MODEL        PACKAGE NPF              ON UNIT   1017 AT TIME STEP      2, STRESS PERIOD      7
 UBDSV06 SAVING              WEL IN MODEL GEO_MODEL        PACKAGE GEO_MODEL       CONNECTED TO MODEL GEO_MODEL        PACKAGE WEL_0            ON UNIT   1017 AT TIME STEP      2, STRESS PERIOD      7
 UBDSV06 SAVING              RIV IN MODEL GEO_MODEL        PACKAGE GEO_MODEL       CONNECTED TO MODEL GEO_MODEL        PACKAGE RIV_0            ON UNIT   1017 AT TIME STEP      2, STRESS PERIOD      7
 UBDSV06 SAVING              GHB IN MODEL GEO_MODEL        PACKAGE GEO_MODEL       CONNECTED TO MODEL GEO_MODEL        PACKAGE GHB_0            ON UNIT   1017 AT TIME STEP      2, STRESS PERIOD      7
 UBDSV06 SAVING              RCH IN MODEL GEO_MODEL        PACKAGE GEO_MODEL       CONNECTED TO MODEL GEO_MODEL        PACKAGE RCH_0            ON UNIT   1017 AT TIME STEP      2, STRESS PERIOD      7
 UBDSV06 SAVING            EVTA  IN MODEL GEO_MODEL        PACKAGE GEO_MODEL       CONNECTED TO MODEL GEO_MODEL        PACKAGE EVTA_0           ON UNIT   1017 AT TIME STEP      2, STRESS PERIOD      7

 HEAD WILL BE SAVED ON UNIT 1018 AT END OF TIME STEP    2, STRESS PERIOD    7

end timestep


start timestep kper="7" kstp="3" mode="normal"

 UBDSV1 SAVING           STO-SS ON UNIT   1017 AT TIME STEP      3, STRESS PERIOD      7
 UBDSV1 SAVING     FLOW-JA-FACE ON UNIT   1017 AT TIME STEP      3, STRESS PERIOD      7
 UBDSV06 SAVING       DATA-SPDIS IN MODEL GEO_MODEL        PACKAGE NPF             CONNECTED TO MODEL GEO_MODEL        PACKAGE NPF              ON UNIT   1017 AT TIME STEP      3, STRESS PERIOD      7
 UBDSV06 SAVING              WEL IN MODEL GEO_MODEL        PACKAGE GEO_MODEL       CONNECTED TO MODEL GEO_MODEL        PACKAGE WEL_0            ON UNIT   1017 AT TIME STEP      3, STRESS PERIOD      7
 UBDSV06 SAVING              RIV IN MODEL GEO_MODEL        PACKAGE GEO_MODEL       CONNECTED TO MODEL GEO_MODEL        PACKAGE RIV_0            ON UNIT   1017 AT TIME STEP      3, STRESS PERIOD      7
 UBDSV06 SAVING              GHB IN MODEL GEO_MODEL        PACKAGE GEO_MODEL       CONNECTED TO MODEL GEO_MODEL        PACKAGE GHB_0            ON UNIT   1017 AT TIME STEP      3, STRESS PERIOD      7
 UBDSV06 SAVING              RCH IN MODEL GEO_MODEL        PACKAGE GEO_MODEL       CONNECTED TO MODEL GEO_MODEL        PACKAGE RCH_0            ON UNIT   1017 AT TIME STEP      3, STRESS PERIOD      7
 UBDSV06 SAVING            EVTA  IN MODEL GEO_MODEL        PACKAGE GEO_MODEL       CONNECTED TO MODEL GEO_MODEL        PACKAGE EVTA_0           ON UNIT   1017 AT TIME STEP      3, STRESS PERIOD      7

 HEAD WILL BE SAVED ON UNIT 1018 AT END OF TIME STEP    3, STRESS PERIOD    7

end timestep


start timestep kper="7" kstp="4" mode="normal"

 UBDSV1 SAVING           STO-SS ON UNIT   1017 AT TIME STEP      4, STRESS PERIOD      7
 UBDSV1 SAVING     FLOW-JA-FACE ON UNIT   1017 AT TIME STEP      4, STRESS PERIOD      7
 UBDSV06 SAVING       DATA-SPDIS IN MODEL GEO_MODEL        PACKAGE NPF             CONNECTED TO MODEL GEO_MODEL        PACKAGE NPF              ON UNIT   1017 AT TIME STEP      4, STRESS PERIOD      7
 UBDSV06 SAVING              WEL IN MODEL GEO_MODEL        PACKAGE GEO_MODEL       CONNECTED TO MODEL GEO_MODEL        PACKAGE WEL_0            ON UNIT   1017 AT TIME STEP      4, STRESS PERIOD      7
 UBDSV06 SAVING              RIV IN MODEL GEO_MODEL        PACKAGE GEO_MODEL       CONNECTED TO MODEL GEO_MODEL        PACKAGE RIV_0            ON UNIT   1017 AT TIME STEP      4, STRESS PERIOD      7
 UBDSV06 SAVING              GHB IN MODEL GEO_MODEL        PACKAGE GEO_MODEL       CONNECTED TO MODEL GEO_MODEL        PACKAGE GHB_0            ON UNIT   1017 AT TIME STEP      4, STRESS PERIOD      7
 UBDSV06 SAVING              RCH IN MODEL GEO_MODEL        PACKAGE GEO_MODEL       CONNECTED TO MODEL GEO_MODEL        PACKAGE RCH_0            ON UNIT   1017 AT TIME STEP      4, STRESS PERIOD      7
 UBDSV06 SAVING            EVTA  IN MODEL GEO_MODEL        PACKAGE GEO_MODEL       CONNECTED TO MODEL GEO_MODEL        PACKAGE EVTA_0           ON UNIT   1017 AT TIME STEP      4, STRESS PERIOD      7

 HEAD WILL BE SAVED ON UNIT 1018 AT END OF TIME STEP    4, STRESS PERIOD    7


  VOLUME BUDGET FOR ENTIRE MODEL AT END OF TIME STEP    4, STRESS PERIOD   7
  ---------------------------------------------------------------------------------------------------

     CUMULATIVE VOLUME      L**3       RATES FOR THIS TIME STEP      L**3/T          PACKAGE NAME    
     ------------------                 ------------------------                     ----------------

           IN:                                      IN:
           ---                                      ---
              STO-SS =       87643.6940                STO-SS =       2.9915E-07     STORAGE                          
                 WEL =           0.0000                   WEL =           0.0000     WEL_0                            
                 RIV =    79936626.8393                   RIV =           0.7714     RIV_0                            
                 GHB =    34273960.0154                   GHB =           0.3308     GHB_0                            
                 RCH =     3198408.2331                   RCH =       3.0849E-02     RCH_0                            
                EVTA =           0.0000                  EVTA =           0.0000     EVTA_0                           

            TOTAL IN =   117496638.7818              TOTAL IN =           1.1331

          OUT:                                     OUT:
          ----                                     ----
              STO-SS =        3503.6469                STO-SS =           0.0000     STORAGE                          
                 WEL =    46656000.0000                   WEL =           0.4500     WEL_0                            
                 RIV =    43177817.5490                   RIV =           0.4162     RIV_0                            
                 GHB =    24947463.1285                   GHB =           0.2405     GHB_0                            
                 RCH =           0.0000                   RCH =           0.0000     RCH_0                            
                EVTA =     2747354.7720                  EVTA =       2.6476E-02     EVTA_0                           

           TOTAL OUT =   117532139.0964             TOTAL OUT =           1.1331

            IN - OUT =      -35500.3146              IN - OUT =      -4.9943E-05

 PERCENT DISCREPANCY =          -0.03     PERCENT DISCREPANCY =          -0.00




         TIME SUMMARY AT END OF TIME STEP    4 IN STRESS PERIOD    7
                    SECONDS     MINUTES      HOURS       DAYS        YEARS
                    -----------------------------------------------------------
   TIME STEP LENGTH 4.32000E+06  72000.      1200.0      50.000     0.13689    
 STRESS PERIOD TIME 1.72800E+07 2.88000E+05  4800.0      200.00     0.54757    
         TOTAL TIME 1.03680E+08 1.72800E+06  28800.      1200.0      3.2854    


end timestep


start timestep kper="8" kstp="1" mode="normal"


 OUTPUT CONTROL FOR STRESS PERIOD 8 IS REPEATED USING SETTINGS FROM A PREVIOUS STRESS PERIOD.


 STRESS PERIOD 8 IS TRANSIENT


 REUSING WELS FROM LAST STRESS PERIOD

 REUSING RIVS FROM LAST STRESS PERIOD

 REUSING GHBS FROM LAST STRESS PERIOD

 REUSING RCHS FROM LAST STRESS PERIOD

 REUSING EVTS FROM LAST STRESS PERIOD
 UBDSV1 SAVING           STO-SS ON UNIT   1017 AT TIME STEP      1, STRESS PERIOD      8
 UBDSV1 SAVING     FLOW-JA-FACE ON UNIT   1017 AT TIME STEP      1, STRESS PERIOD      8
 UBDSV06 SAVING       DATA-SPDIS IN MODEL GEO_MODEL        PACKAGE NPF             CONNECTED TO MODEL GEO_MODEL        PACKAGE NPF              ON UNIT   1017 AT TIME STEP      1, STRESS PERIOD      8
 UBDSV06 SAVING              WEL IN MODEL GEO_MODEL        PACKAGE GEO_MODEL       CONNECTED TO MODEL GEO_MODEL        PACKAGE WEL_0            ON UNIT   1017 AT TIME STEP      1, STRESS PERIOD      8
 UBDSV06 SAVING              RIV IN MODEL GEO_MODEL        PACKAGE GEO_MODEL       CONNECTED TO MODEL GEO_MODEL        PACKAGE RIV_0            ON UNIT   1017 AT TIME STEP      1, STRESS PERIOD      8
 UBDSV06 SAVING              GHB IN MODEL GEO_MODEL        PACKAGE GEO_MODEL       CONNECTED TO MODEL GEO_MODEL        PACKAGE GHB_0            ON UNIT   1017 AT TIME STEP      1, STRESS PERIOD      8
 UBDSV06 SAVING              RCH IN MODEL GEO_MODEL        PACKAGE GEO_MODEL       CONNECTED TO MODEL GEO_MODEL        PACKAGE RCH_0            ON UNIT   1017 AT TIME STEP      1, STRESS PERIOD      8
 UBDSV06 SAVING            EVTA  IN MODEL GEO_MODEL        PACKAGE GEO_MODEL       CONNECTED TO MODEL GEO_MODEL        PACKAGE EVTA_0           ON UNIT   1017 AT TIME STEP      1, STRESS PERIOD      8

 HEAD WILL BE SAVED ON UNIT 1018 AT END OF TIME STEP    1, STRESS PERIOD    8

end timestep


start timestep kper="8" kstp="2" mode="normal"

 UBDSV1 SAVING           STO-SS ON UNIT   1017 AT TIME STEP      2, STRESS PERIOD      8
 UBDSV1 SAVING     FLOW-JA-FACE ON UNIT   1017 AT TIME STEP      2, STRESS PERIOD      8
 UBDSV06 SAVING       DATA-SPDIS IN MODEL GEO_MODEL        PACKAGE NPF             CONNECTED TO MODEL GEO_MODEL        PACKAGE NPF              ON UNIT   1017 AT TIME STEP      2, STRESS PERIOD      8
 UBDSV06 SAVING              WEL IN MODEL GEO_MODEL        PACKAGE GEO_MODEL       CONNECTED TO MODEL GEO_MODEL        PACKAGE WEL_0            ON UNIT   1017 AT TIME STEP      2, STRESS PERIOD      8
 UBDSV06 SAVING              RIV IN MODEL GEO_MODEL        PACKAGE GEO_MODEL       CONNECTED TO MODEL GEO_MODEL        PACKAGE RIV_0            ON UNIT   1017 AT TIME STEP      2, STRESS PERIOD      8
 UBDSV06 SAVING              GHB IN MODEL GEO_MODEL        PACKAGE GEO_MODEL       CONNECTED TO MODEL GEO_MODEL        PACKAGE GHB_0            ON UNIT   1017 AT TIME STEP      2, STRESS PERIOD      8
 UBDSV06 SAVING              RCH IN MODEL GEO_MODEL        PACKAGE GEO_MODEL       CONNECTED TO MODEL GEO_MODEL        PACKAGE RCH_0            ON UNIT   1017 AT TIME STEP      2, STRESS PERIOD      8
 UBDSV06 SAVING            EVTA  IN MODEL GEO_MODEL        PACKAGE GEO_MODEL       CONNECTED TO MODEL GEO_MODEL        PACKAGE EVTA_0           ON UNIT   1017 AT TIME STEP      2, STRESS PERIOD      8

 HEAD WILL BE SAVED ON UNIT 1018 AT END OF TIME STEP    2, STRESS PERIOD    8

end timestep


start timestep kper="8" kstp="3" mode="normal"

 UBDSV1 SAVING           STO-SS ON UNIT   1017 AT TIME STEP      3, STRESS PERIOD      8
 UBDSV1 SAVING     FLOW-JA-FACE ON UNIT   1017 AT TIME STEP      3, STRESS PERIOD      8
 UBDSV06 SAVING       DATA-SPDIS IN MODEL GEO_MODEL        PACKAGE NPF             CONNECTED TO MODEL GEO_MODEL        PACKAGE NPF              ON UNIT   1017 AT TIME STEP      3, STRESS PERIOD      8
 UBDSV06 SAVING              WEL IN MODEL GEO_MODEL        PACKAGE GEO_MODEL       CONNECTED TO MODEL GEO_MODEL        PACKAGE WEL_0            ON UNIT   1017 AT TIME STEP      3, STRESS PERIOD      8
 UBDSV06 SAVING              RIV IN MODEL GEO_MODEL        PACKAGE GEO_MODEL       CONNECTED TO MODEL GEO_MODEL        PACKAGE RIV_0            ON UNIT   1017 AT TIME STEP      3, STRESS PERIOD      8
 UBDSV06 SAVING              GHB IN MODEL GEO_MODEL        PACKAGE GEO_MODEL       CONNECTED TO MODEL GEO_MODEL        PACKAGE GHB_0            ON UNIT   1017 AT TIME STEP      3, STRESS PERIOD      8
 UBDSV06 SAVING              RCH IN MODEL GEO_MODEL        PACKAGE GEO_MODEL       CONNECTED TO MODEL GEO_MODEL        PACKAGE RCH_0            ON UNIT   1017 AT TIME STEP      3, STRESS PERIOD      8
 UBDSV06 SAVING            EVTA  IN MODEL GEO_MODEL        PACKAGE GEO_MODEL       CONNECTED TO MODEL GEO_MODEL        PACKAGE EVTA_0           ON UNIT   1017 AT TIME STEP      3, STRESS PERIOD      8

 HEAD WILL BE SAVED ON UNIT 1018 AT END OF TIME STEP    3, STRESS PERIOD    8

end timestep


start timestep kper="8" kstp="4" mode="normal"

 UBDSV1 SAVING           STO-SS ON UNIT   1017 AT TIME STEP      4, STRESS PERIOD      8
 UBDSV1 SAVING     FLOW-JA-FACE ON UNIT   1017 AT TIME STEP      4, STRESS PERIOD      8
 UBDSV06 SAVING       DATA-SPDIS IN MODEL GEO_MODEL        PACKAGE NPF             CONNECTED TO MODEL GEO_MODEL        PACKAGE NPF              ON UNIT   1017 AT TIME STEP      4, STRESS PERIOD      8
 UBDSV06 SAVING              WEL IN MODEL GEO_MODEL        PACKAGE GEO_MODEL       CONNECTED TO MODEL GEO_MODEL        PACKAGE WEL_0            ON UNIT   1017 AT TIME STEP      4, STRESS PERIOD      8
 UBDSV06 SAVING              RIV IN MODEL GEO_MODEL        PACKAGE GEO_MODEL       CONNECTED TO MODEL GEO_MODEL        PACKAGE RIV_0            ON UNIT   1017 AT TIME STEP      4, STRESS PERIOD      8
 UBDSV06 SAVING              GHB IN MODEL GEO_MODEL        PACKAGE GEO_MODEL       CONNECTED TO MODEL GEO_MODEL        PACKAGE GHB_0            ON UNIT   1017 AT TIME STEP      4, STRESS PERIOD      8
 UBDSV06 SAVING              RCH IN MODEL GEO_MODEL        PACKAGE GEO_MODEL       CONNECTED TO MODEL GEO_MODEL        PACKAGE RCH_0            ON UNIT   1017 AT TIME STEP      4, STRESS PERIOD      8
 UBDSV06 SAVING            EVTA  IN MODEL GEO_MODEL        PACKAGE GEO_MODEL       CONNECTED TO MODEL GEO_MODEL        PACKAGE EVTA_0           ON UNIT   1017 AT TIME STEP      4, STRESS PERIOD      8

 HEAD WILL BE SAVED ON UNIT 1018 AT END OF TIME STEP    4, STRESS PERIOD    8


  VOLUME BUDGET FOR ENTIRE MODEL AT END OF TIME STEP    4, STRESS PERIOD   8
  ---------------------------------------------------------------------------------------------------

     CUMULATIVE VOLUME      L**3       RATES FOR THIS TIME STEP      L**3/T          PACKAGE NAME    
     ------------------                 ------------------------                     ----------------

           IN:                                      IN:
           ---                                      ---
              STO-SS =       87643.8576                STO-SS =       1.0508E-08     STORAGE                          
                 WEL =           0.0000                   WEL =           0.0000     WEL_0                            
                 RIV =    93266801.4256                   RIV =           0.7714     RIV_0                            
                 GHB =    39989865.0317                   GHB =           0.3308     GHB_0                            
                 RCH =     3731476.2669                   RCH =       3.0849E-02     RCH_0                            
                EVTA =           0.0000                  EVTA =           0.0000     EVTA_0                           

            TOTAL IN =   137075786.5817              TOTAL IN =           1.1331

          OUT:                                     OUT:
          ----                                     ----
              STO-SS =        3503.6500                STO-SS =       7.6934E-12     STORAGE                          
                 WEL =    54432000.0000                   WEL =           0.4500     WEL_0                            
                 RIV =    50369001.8067                   RIV =           0.4162     RIV_0                            
                 GHB =    29102765.5775                   GHB =           0.2405     GHB_0                            
                 RCH =           0.0000                   RCH =           0.0000     RCH_0                            
                EVTA =     3204852.4900                  EVTA =       2.6476E-02     EVTA_0                           

           TOTAL OUT =   137112123.5242             TOTAL OUT =           1.1331

            IN - OUT =      -36336.9425              IN - OUT =      -4.6947E-05

 PERCENT DISCREPANCY =          -0.03     PERCENT DISCREPANCY =          -0.00




         TIME SUMMARY AT END OF TIME STEP    4 IN STRESS PERIOD    8
                    SECONDS     MINUTES      HOURS       DAYS        YEARS
                    -----------------------------------------------------------
   TIME STEP LENGTH 4.32000E+06  72000.      1200.0      50.000     0.13689    
 STRESS PERIOD TIME 1.72800E+07 2.88000E+05  4800.0      200.00     0.54757    
         TOTAL TIME 1.20960E+08 2.01600E+06  33600.      1400.0      3.8330    


end timestep


start timestep kper="9" kstp="1" mode="normal"


 OUTPUT CONTROL FOR STRESS PERIOD 9 IS REPEATED USING SETTINGS FROM A PREVIOUS STRESS PERIOD.


 STRESS PERIOD 9 IS TRANSIENT


 REUSING WELS FROM LAST STRESS PERIOD

 REUSING RIVS FROM LAST STRESS PERIOD

 REUSING GHBS FROM LAST STRESS PERIOD

 REUSING RCHS FROM LAST STRESS PERIOD

 REUSING EVTS FROM LAST STRESS PERIOD
 UBDSV1 SAVING           STO-SS ON UNIT   1017 AT TIME STEP      1, STRESS PERIOD      9
 UBDSV1 SAVING     FLOW-JA-FACE ON UNIT   1017 AT TIME STEP      1, STRESS PERIOD      9
 UBDSV06 SAVING       DATA-SPDIS IN MODEL GEO_MODEL        PACKAGE NPF             CONNECTED TO MODEL GEO_MODEL        PACKAGE NPF              ON UNIT   1017 AT TIME STEP      1, STRESS PERIOD      9
 UBDSV06 SAVING              WEL IN MODEL GEO_MODEL        PACKAGE GEO_MODEL       CONNECTED TO MODEL GEO_MODEL        PACKAGE WEL_0            ON UNIT   1017 AT TIME STEP      1, STRESS PERIOD      9
 UBDSV06 SAVING              RIV IN MODEL GEO_MODEL        PACKAGE GEO_MODEL       CONNECTED TO MODEL GEO_MODEL        PACKAGE RIV_0            ON UNIT   1017 AT TIME STEP      1, STRESS PERIOD      9
 UBDSV06 SAVING              GHB IN MODEL GEO_MODEL        PACKAGE GEO_MODEL       CONNECTED TO MODEL GEO_MODEL        PACKAGE GHB_0            ON UNIT   1017 AT TIME STEP      1, STRESS PERIOD      9
 UBDSV06 SAVING              RCH IN MODEL GEO_MODEL        PACKAGE GEO_MODEL       CONNECTED TO MODEL GEO_MODEL        PACKAGE RCH_0            ON UNIT   1017 AT TIME STEP      1, STRESS PERIOD      9
 UBDSV06 SAVING            EVTA  IN MODEL GEO_MODEL        PACKAGE GEO_MODEL       CONNECTED TO MODEL GEO_MODEL        PACKAGE EVTA_0           ON UNIT   1017 AT TIME STEP      1, STRESS PERIOD      9

 HEAD WILL BE SAVED ON UNIT 1018 AT END OF TIME STEP    1, STRESS PERIOD    9

end timestep


start timestep kper="9" kstp="2" mode="normal"

 UBDSV1 SAVING           STO-SS ON UNIT   1017 AT TIME STEP      2, STRESS PERIOD      9
 UBDSV1 SAVING     FLOW-JA-FACE ON UNIT   1017 AT TIME STEP      2, STRESS PERIOD      9
 UBDSV06 SAVING       DATA-SPDIS IN MODEL GEO_MODEL        PACKAGE NPF             CONNECTED TO MODEL GEO_MODEL        PACKAGE NPF              ON UNIT   1017 AT TIME STEP      2, STRESS PERIOD      9
 UBDSV06 SAVING              WEL IN MODEL GEO_MODEL        PACKAGE GEO_MODEL       CONNECTED TO MODEL GEO_MODEL        PACKAGE WEL_0            ON UNIT   1017 AT TIME STEP      2, STRESS PERIOD      9
 UBDSV06 SAVING              RIV IN MODEL GEO_MODEL        PACKAGE GEO_MODEL       CONNECTED TO MODEL GEO_MODEL        PACKAGE RIV_0            ON UNIT   1017 AT TIME STEP      2, STRESS PERIOD      9
 UBDSV06 SAVING              GHB IN MODEL GEO_MODEL        PACKAGE GEO_MODEL       CONNECTED TO MODEL GEO_MODEL        PACKAGE GHB_0            ON UNIT   1017 AT TIME STEP      2, STRESS PERIOD      9
 UBDSV06 SAVING              RCH IN MODEL GEO_MODEL        PACKAGE GEO_MODEL       CONNECTED TO MODEL GEO_MODEL        PACKAGE RCH_0            ON UNIT   1017 AT TIME STEP      2, STRESS PERIOD      9
 UBDSV06 SAVING            EVTA  IN MODEL GEO_MODEL        PACKAGE GEO_MODEL       CONNECTED TO MODEL GEO_MODEL        PACKAGE EVTA_0           ON UNIT   1017 AT TIME STEP      2, STRESS PERIOD      9

 HEAD WILL BE SAVED ON UNIT 1018 AT END OF TIME STEP    2, STRESS PERIOD    9

end timestep


start timestep kper="9" kstp="3" mode="normal"

 UBDSV1 SAVING           STO-SS ON UNIT   1017 AT TIME STEP      3, STRESS PERIOD      9
 UBDSV1 SAVING     FLOW-JA-FACE ON UNIT   1017 AT TIME STEP      3, STRESS PERIOD      9
 UBDSV06 SAVING       DATA-SPDIS IN MODEL GEO_MODEL        PACKAGE NPF             CONNECTED TO MODEL GEO_MODEL        PACKAGE NPF              ON UNIT   1017 AT TIME STEP      3, STRESS PERIOD      9
 UBDSV06 SAVING              WEL IN MODEL GEO_MODEL        PACKAGE GEO_MODEL       CONNECTED TO MODEL GEO_MODEL        PACKAGE WEL_0            ON UNIT   1017 AT TIME STEP      3, STRESS PERIOD      9
 UBDSV06 SAVING              RIV IN MODEL GEO_MODEL        PACKAGE GEO_MODEL       CONNECTED TO MODEL GEO_MODEL        PACKAGE RIV_0            ON UNIT   1017 AT TIME STEP      3, STRESS PERIOD      9
 UBDSV06 SAVING              GHB IN MODEL GEO_MODEL        PACKAGE GEO_MODEL       CONNECTED TO MODEL GEO_MODEL        PACKAGE GHB_0            ON UNIT   1017 AT TIME STEP      3, STRESS PERIOD      9
 UBDSV06 SAVING              RCH IN MODEL GEO_MODEL        PACKAGE GEO_MODEL       CONNECTED TO MODEL GEO_MODEL        PACKAGE RCH_0            ON UNIT   1017 AT TIME STEP      3, STRESS PERIOD      9
 UBDSV06 SAVING            EVTA  IN MODEL GEO_MODEL        PACKAGE GEO_MODEL       CONNECTED TO MODEL GEO_MODEL        PACKAGE EVTA_0           ON UNIT   1017 AT TIME STEP      3, STRESS PERIOD      9

 HEAD WILL BE SAVED ON UNIT 1018 AT END OF TIME STEP    3, STRESS PERIOD    9

end timestep


start timestep kper="9" kstp="4" mode="normal"

 UBDSV1 SAVING           STO-SS ON UNIT   1017 AT TIME STEP      4, STRESS PERIOD      9
 UBDSV1 SAVING     FLOW-JA-FACE ON UNIT   1017 AT TIME STEP      4, STRESS PERIOD      9
 UBDSV06 SAVING       DATA-SPDIS IN MODEL GEO_MODEL        PACKAGE NPF             CONNECTED TO MODEL GEO_MODEL        PACKAGE NPF              ON UNIT   1017 AT TIME STEP      4, STRESS PERIOD      9
 UBDSV06 SAVING              WEL IN MODEL GEO_MODEL        PACKAGE GEO_MODEL       CONNECTED TO MODEL GEO_MODEL        PACKAGE WEL_0            ON UNIT   1017 AT TIME STEP      4, STRESS PERIOD      9
 UBDSV06 SAVING              RIV IN MODEL GEO_MODEL        PACKAGE GEO_MODEL       CONNECTED TO MODEL GEO_MODEL        PACKAGE RIV_0            ON UNIT   1017 AT TIME STEP      4, STRESS PERIOD      9
 UBDSV06 SAVING              GHB IN MODEL GEO_MODEL        PACKAGE GEO_MODEL       CONNECTED TO MODEL GEO_MODEL        PACKAGE GHB_0            ON UNIT   1017 AT TIME STEP      4, STRESS PERIOD      9
 UBDSV06 SAVING              RCH IN MODEL GEO_MODEL        PACKAGE GEO_MODEL       CONNECTED TO MODEL GEO_MODEL        PACKAGE RCH_0            ON UNIT   1017 AT TIME STEP      4, STRESS PERIOD      9
 UBDSV06 SAVING            EVTA  IN MODEL GEO_MODEL        PACKAGE GEO_MODEL       CONNECTED TO MODEL GEO_MODEL        PACKAGE EVTA_0           ON UNIT   1017 AT TIME STEP      4, STRESS PERIOD      9

 HEAD WILL BE SAVED ON UNIT 1018 AT END OF TIME STEP    4, STRESS PERIOD    9


  VOLUME BUDGET FOR ENTIRE MODEL AT END OF TIME STEP    4, STRESS PERIOD   9
  ---------------------------------------------------------------------------------------------------

     CUMULATIVE VOLUME      L**3       RATES FOR THIS TIME STEP      L**3/T          PACKAGE NAME    
     ------------------                 ------------------------                     ----------------

           IN:                                      IN:
           ---                                      ---
              STO-SS =       87644.0829                STO-SS =       2.5916E-08     STORAGE                          
                 WEL =           0.0000                   WEL =           0.0000     WEL_0                            
                 RIV =   106597002.0174                   RIV =           0.7714     RIV_0                            
                 GHB =    45705781.2742                   GHB =           0.3308     GHB_0                            
                 RCH =     4264544.3006                   RCH =       3.0849E-02     RCH_0                            
                EVTA =           0.0000                  EVTA =           0.0000     EVTA_0                           

            TOTAL IN =   156654971.6751              TOTAL IN =           1.1331

          OUT:                                     OUT:
          ----                                     ----
              STO-SS =        3503.6502                STO-SS =           0.0000     STORAGE                          
                 WEL =    62208000.0000                   WEL =           0.4500     WEL_0                            
                 RIV =    57560167.2810                   RIV =           0.4162     RIV_0                            
                 GHB =    33258058.7819                   GHB =           0.2405     GHB_0                            
                 RCH =           0.0000                   RCH =           0.0000     RCH_0                            
                EVTA =     3662348.6596                  EVTA =       2.6475E-02     EVTA_0                           

           TOTAL OUT =   156692078.3727             TOTAL OUT =           1.1331

            IN - OUT =      -37106.6976              IN - OUT =      -4.2284E-05

 PERCENT DISCREPANCY =          -0.02     PERCENT DISCREPANCY =          -0.00




         TIME SUMMARY AT END OF TIME STEP    4 IN STRESS PERIOD    9
                    SECONDS     MINUTES      HOURS       DAYS        YEARS
                    -----------------------------------------------------------
   TIME STEP LENGTH 4.32000E+06  72000.      1200.0      50.000     0.13689    
 STRESS PERIOD TIME 1.72800E+07 2.88000E+05  4800.0      200.00     0.54757    
         TOTAL TIME 1.38240E+08 2.30400E+06  38400.      1600.0      4.3806    


end timestep


start timestep kper="10" kstp="1" mode="normal"


 OUTPUT CONTROL FOR STRESS PERIOD 10 IS REPEATED USING SETTINGS FROM A PREVIOUS STRESS PERIOD.


 STRESS PERIOD 10 IS TRANSIENT


 REUSING WELS FROM LAST STRESS PERIOD

 REUSING RIVS FROM LAST STRESS PERIOD

 REUSING GHBS FROM LAST STRESS PERIOD

 REUSING RCHS FROM LAST STRESS PERIOD

 REUSING EVTS FROM LAST STRESS PERIOD
 UBDSV1 SAVING           STO-SS ON UNIT   1017 AT TIME STEP      1, STRESS PERIOD     10
 UBDSV1 SAVING     FLOW-JA-FACE ON UNIT   1017 AT TIME STEP      1, STRESS PERIOD     10
 UBDSV06 SAVING       DATA-SPDIS IN MODEL GEO_MODEL        PACKAGE NPF             CONNECTED TO MODEL GEO_MODEL        PACKAGE NPF              ON UNIT   1017 AT TIME STEP      1, STRESS PERIOD     10
 UBDSV06 SAVING              WEL IN MODEL GEO_MODEL        PACKAGE GEO_MODEL       CONNECTED TO MODEL GEO_MODEL        PACKAGE WEL_0            ON UNIT   1017 AT TIME STEP      1, STRESS PERIOD     10
 UBDSV06 SAVING              RIV IN MODEL GEO_MODEL        PACKAGE GEO_MODEL       CONNECTED TO MODEL GEO_MODEL        PACKAGE RIV_0            ON UNIT   1017 AT TIME STEP      1, STRESS PERIOD     10
 UBDSV06 SAVING              GHB IN MODEL GEO_MODEL        PACKAGE GEO_MODEL       CONNECTED TO MODEL GEO_MODEL        PACKAGE GHB_0            ON UNIT   1017 AT TIME STEP      1, STRESS PERIOD     10
 UBDSV06 SAVING              RCH IN MODEL GEO_MODEL        PACKAGE GEO_MODEL       CONNECTED TO MODEL GEO_MODEL        PACKAGE RCH_0            ON UNIT   1017 AT TIME STEP      1, STRESS PERIOD     10
 UBDSV06 SAVING            EVTA  IN MODEL GEO_MODEL        PACKAGE GEO_MODEL       CONNECTED TO MODEL GEO_MODEL        PACKAGE EVTA_0           ON UNIT   1017 AT TIME STEP      1, STRESS PERIOD     10

 HEAD WILL BE SAVED ON UNIT 1018 AT END OF TIME STEP    1, STRESS PERIOD   10

end timestep


start timestep kper="10" kstp="2" mode="normal"

 UBDSV1 SAVING           STO-SS ON UNIT   1017 AT TIME STEP      2, STRESS PERIOD     10
 UBDSV1 SAVING     FLOW-JA-FACE ON UNIT   1017 AT TIME STEP      2, STRESS PERIOD     10
 UBDSV06 SAVING       DATA-SPDIS IN MODEL GEO_MODEL        PACKAGE NPF             CONNECTED TO MODEL GEO_MODEL        PACKAGE NPF              ON UNIT   1017 AT TIME STEP      2, STRESS PERIOD     10
 UBDSV06 SAVING              WEL IN MODEL GEO_MODEL        PACKAGE GEO_MODEL       CONNECTED TO MODEL GEO_MODEL        PACKAGE WEL_0            ON UNIT   1017 AT TIME STEP      2, STRESS PERIOD     10
 UBDSV06 SAVING              RIV IN MODEL GEO_MODEL        PACKAGE GEO_MODEL       CONNECTED TO MODEL GEO_MODEL        PACKAGE RIV_0            ON UNIT   1017 AT TIME STEP      2, STRESS PERIOD     10
 UBDSV06 SAVING              GHB IN MODEL GEO_MODEL        PACKAGE GEO_MODEL       CONNECTED TO MODEL GEO_MODEL        PACKAGE GHB_0            ON UNIT   1017 AT TIME STEP      2, STRESS PERIOD     10
 UBDSV06 SAVING              RCH IN MODEL GEO_MODEL        PACKAGE GEO_MODEL       CONNECTED TO MODEL GEO_MODEL        PACKAGE RCH_0            ON UNIT   1017 AT TIME STEP      2, STRESS PERIOD     10
 UBDSV06 SAVING            EVTA  IN MODEL GEO_MODEL        PACKAGE GEO_MODEL       CONNECTED TO MODEL GEO_MODEL        PACKAGE EVTA_0           ON UNIT   1017 AT TIME STEP      2, STRESS PERIOD     10

 HEAD WILL BE SAVED ON UNIT 1018 AT END OF TIME STEP    2, STRESS PERIOD   10

end timestep


start timestep kper="10" kstp="3" mode="normal"

 UBDSV1 SAVING           STO-SS ON UNIT   1017 AT TIME STEP      3, STRESS PERIOD     10
 UBDSV1 SAVING     FLOW-JA-FACE ON UNIT   1017 AT TIME STEP      3, STRESS PERIOD     10
 UBDSV06 SAVING       DATA-SPDIS IN MODEL GEO_MODEL        PACKAGE NPF             CONNECTED TO MODEL GEO_MODEL        PACKAGE NPF              ON UNIT   1017 AT TIME STEP      3, STRESS PERIOD     10
 UBDSV06 SAVING              WEL IN MODEL GEO_MODEL        PACKAGE GEO_MODEL       CONNECTED TO MODEL GEO_MODEL        PACKAGE WEL_0            ON UNIT   1017 AT TIME STEP      3, STRESS PERIOD     10
 UBDSV06 SAVING              RIV IN MODEL GEO_MODEL        PACKAGE GEO_MODEL       CONNECTED TO MODEL GEO_MODEL        PACKAGE RIV_0            ON UNIT   1017 AT TIME STEP      3, STRESS PERIOD     10
 UBDSV06 SAVING              GHB IN MODEL GEO_MODEL        PACKAGE GEO_MODEL       CONNECTED TO MODEL GEO_MODEL        PACKAGE GHB_0            ON UNIT   1017 AT TIME STEP      3, STRESS PERIOD     10
 UBDSV06 SAVING              RCH IN MODEL GEO_MODEL        PACKAGE GEO_MODEL       CONNECTED TO MODEL GEO_MODEL        PACKAGE RCH_0            ON UNIT   1017 AT TIME STEP      3, STRESS PERIOD     10
 UBDSV06 SAVING            EVTA  IN MODEL GEO_MODEL        PACKAGE GEO_MODEL       CONNECTED TO MODEL GEO_MODEL        PACKAGE EVTA_0           ON UNIT   1017 AT TIME STEP      3, STRESS PERIOD     10

 HEAD WILL BE SAVED ON UNIT 1018 AT END OF TIME STEP    3, STRESS PERIOD   10

end timestep


start timestep kper="10" kstp="4" mode="normal"

 UBDSV1 SAVING           STO-SS ON UNIT   1017 AT TIME STEP      4, STRESS PERIOD     10
 UBDSV1 SAVING     FLOW-JA-FACE ON UNIT   1017 AT TIME STEP      4, STRESS PERIOD     10
 UBDSV06 SAVING       DATA-SPDIS IN MODEL GEO_MODEL        PACKAGE NPF             CONNECTED TO MODEL GEO_MODEL        PACKAGE NPF              ON UNIT   1017 AT TIME STEP      4, STRESS PERIOD     10
 UBDSV06 SAVING              WEL IN MODEL GEO_MODEL        PACKAGE GEO_MODEL       CONNECTED TO MODEL GEO_MODEL        PACKAGE WEL_0            ON UNIT   1017 AT TIME STEP      4, STRESS PERIOD     10
 UBDSV06 SAVING              RIV IN MODEL GEO_MODEL        PACKAGE GEO_MODEL       CONNECTED TO MODEL GEO_MODEL        PACKAGE RIV_0            ON UNIT   1017 AT TIME STEP      4, STRESS PERIOD     10
 UBDSV06 SAVING              GHB IN MODEL GEO_MODEL        PACKAGE GEO_MODEL       CONNECTED TO MODEL GEO_MODEL        PACKAGE GHB_0            ON UNIT   1017 AT TIME STEP      4, STRESS PERIOD     10
 UBDSV06 SAVING              RCH IN MODEL GEO_MODEL        PACKAGE GEO_MODEL       CONNECTED TO MODEL GEO_MODEL        PACKAGE RCH_0            ON UNIT   1017 AT TIME STEP      4, STRESS PERIOD     10
 UBDSV06 SAVING            EVTA  IN MODEL GEO_MODEL        PACKAGE GEO_MODEL       CONNECTED TO MODEL GEO_MODEL        PACKAGE EVTA_0           ON UNIT   1017 AT TIME STEP      4, STRESS PERIOD     10

 HEAD WILL BE SAVED ON UNIT 1018 AT END OF TIME STEP    4, STRESS PERIOD   10


  VOLUME BUDGET FOR ENTIRE MODEL AT END OF TIME STEP    4, STRESS PERIOD  10
  ---------------------------------------------------------------------------------------------------

     CUMULATIVE VOLUME      L**3       RATES FOR THIS TIME STEP      L**3/T          PACKAGE NAME    
     ------------------                 ------------------------                     ----------------

           IN:                                      IN:
           ---                                      ---
              STO-SS =       87645.2732                STO-SS =       2.7553E-09     STORAGE                          
                 WEL =           0.0000                   WEL =           0.0000     WEL_0                            
                 RIV =   119927344.7023                   RIV =           0.7714     RIV_0                            
                 GHB =    51421753.8849                   GHB =           0.3308     GHB_0                            
                 RCH =     4797612.3343                   RCH =       3.0849E-02     RCH_0                            
                EVTA =           0.0000                  EVTA =           0.0000     EVTA_0                           

            TOTAL IN =   176234356.1947              TOTAL IN =           1.1331

          OUT:                                     OUT:
          ----                                     ----
              STO-SS =        3503.6533                STO-SS =       1.4864E-10     STORAGE                          
                 WEL =    69984000.0000                   WEL =           0.4500     WEL_0                            
                 RIV =    64751234.4978                   RIV =           0.4161     RIV_0                            
                 GHB =    37413305.7720                   GHB =           0.2405     GHB_0                            
                 RCH =           0.0000                   RCH =           0.0000     RCH_0                            
                EVTA =     4119837.2270                  EVTA =       2.6475E-02     EVTA_0                           

           TOTAL OUT =   176271881.1502             TOTAL OUT =           1.1331

            IN - OUT =      -37524.9555              IN - OUT =      -1.8173E-05

 PERCENT DISCREPANCY =          -0.02     PERCENT DISCREPANCY =          -0.00




         TIME SUMMARY AT END OF TIME STEP    4 IN STRESS PERIOD   10
                    SECONDS     MINUTES      HOURS       DAYS        YEARS
                    -----------------------------------------------------------
   TIME STEP LENGTH 4.32000E+06  72000.      1200.0      50.000     0.13689    
 STRESS PERIOD TIME 1.72800E+07 2.88000E+05  4800.0      200.00     0.54757    
         TOTAL TIME 1.55520E+08 2.59200E+06  43200.      1800.0      4.9281    


end timestep


start timestep kper="11" kstp="1" mode="normal"


 OUTPUT CONTROL FOR STRESS PERIOD 11 IS REPEATED USING SETTINGS FROM A PREVIOUS STRESS PERIOD.


 STRESS PERIOD 11 IS TRANSIENT


 REUSING WELS FROM LAST STRESS PERIOD

 REUSING RIVS FROM LAST STRESS PERIOD

 REUSING GHBS FROM LAST STRESS PERIOD

 REUSING RCHS FROM LAST STRESS PERIOD

 REUSING EVTS FROM LAST STRESS PERIOD
 UBDSV1 SAVING           STO-SS ON UNIT   1017 AT TIME STEP      1, STRESS PERIOD     11
 UBDSV1 SAVING     FLOW-JA-FACE ON UNIT   1017 AT TIME STEP      1, STRESS PERIOD     11
 UBDSV06 SAVING       DATA-SPDIS IN MODEL GEO_MODEL        PACKAGE NPF             CONNECTED TO MODEL GEO_MODEL        PACKAGE NPF              ON UNIT   1017 AT TIME STEP      1, STRESS PERIOD     11
 UBDSV06 SAVING              WEL IN MODEL GEO_MODEL        PACKAGE GEO_MODEL       CONNECTED TO MODEL GEO_MODEL        PACKAGE WEL_0            ON UNIT   1017 AT TIME STEP      1, STRESS PERIOD     11
 UBDSV06 SAVING              RIV IN MODEL GEO_MODEL        PACKAGE GEO_MODEL       CONNECTED TO MODEL GEO_MODEL        PACKAGE RIV_0            ON UNIT   1017 AT TIME STEP      1, STRESS PERIOD     11
 UBDSV06 SAVING              GHB IN MODEL GEO_MODEL        PACKAGE GEO_MODEL       CONNECTED TO MODEL GEO_MODEL        PACKAGE GHB_0            ON UNIT   1017 AT TIME STEP      1, STRESS PERIOD     11
 UBDSV06 SAVING              RCH IN MODEL GEO_MODEL        PACKAGE GEO_MODEL       CONNECTED TO MODEL GEO_MODEL        PACKAGE RCH_0            ON UNIT   1017 AT TIME STEP      1, STRESS PERIOD     11
 UBDSV06 SAVING            EVTA  IN MODEL GEO_MODEL        PACKAGE GEO_MODEL       CONNECTED TO MODEL GEO_MODEL        PACKAGE EVTA_0           ON UNIT   1017 AT TIME STEP      1, STRESS PERIOD     11

 HEAD WILL BE SAVED ON UNIT 1018 AT END OF TIME STEP    1, STRESS PERIOD   11

end timestep


start timestep kper="11" kstp="2" mode="normal"

 UBDSV1 SAVING           STO-SS ON UNIT   1017 AT TIME STEP      2, STRESS PERIOD     11
 UBDSV1 SAVING     FLOW-JA-FACE ON UNIT   1017 AT TIME STEP      2, STRESS PERIOD     11
 UBDSV06 SAVING       DATA-SPDIS IN MODEL GEO_MODEL        PACKAGE NPF             CONNECTED TO MODEL GEO_MODEL        PACKAGE NPF              ON UNIT   1017 AT TIME STEP      2, STRESS PERIOD     11
 UBDSV06 SAVING              WEL IN MODEL GEO_MODEL        PACKAGE GEO_MODEL       CONNECTED TO MODEL GEO_MODEL        PACKAGE WEL_0            ON UNIT   1017 AT TIME STEP      2, STRESS PERIOD     11
 UBDSV06 SAVING              RIV IN MODEL GEO_MODEL        PACKAGE GEO_MODEL       CONNECTED TO MODEL GEO_MODEL        PACKAGE RIV_0            ON UNIT   1017 AT TIME STEP      2, STRESS PERIOD     11
 UBDSV06 SAVING              GHB IN MODEL GEO_MODEL        PACKAGE GEO_MODEL       CONNECTED TO MODEL GEO_MODEL        PACKAGE GHB_0            ON UNIT   1017 AT TIME STEP      2, STRESS PERIOD     11
 UBDSV06 SAVING              RCH IN MODEL GEO_MODEL        PACKAGE GEO_MODEL       CONNECTED TO MODEL GEO_MODEL        PACKAGE RCH_0            ON UNIT   1017 AT TIME STEP      2, STRESS PERIOD     11
 UBDSV06 SAVING            EVTA  IN MODEL GEO_MODEL        PACKAGE GEO_MODEL       CONNECTED TO MODEL GEO_MODEL        PACKAGE EVTA_0           ON UNIT   1017 AT TIME STEP      2, STRESS PERIOD     11

 HEAD WILL BE SAVED ON UNIT 1018 AT END OF TIME STEP    2, STRESS PERIOD   11

end timestep


start timestep kper="11" kstp="3" mode="normal"

 UBDSV1 SAVING           STO-SS ON UNIT   1017 AT TIME STEP      3, STRESS PERIOD     11
 UBDSV1 SAVING     FLOW-JA-FACE ON UNIT   1017 AT TIME STEP      3, STRESS PERIOD     11
 UBDSV06 SAVING       DATA-SPDIS IN MODEL GEO_MODEL        PACKAGE NPF             CONNECTED TO MODEL GEO_MODEL        PACKAGE NPF              ON UNIT   1017 AT TIME STEP      3, STRESS PERIOD     11
 UBDSV06 SAVING              WEL IN MODEL GEO_MODEL        PACKAGE GEO_MODEL       CONNECTED TO MODEL GEO_MODEL        PACKAGE WEL_0            ON UNIT   1017 AT TIME STEP      3, STRESS PERIOD     11
 UBDSV06 SAVING              RIV IN MODEL GEO_MODEL        PACKAGE GEO_MODEL       CONNECTED TO MODEL GEO_MODEL        PACKAGE RIV_0            ON UNIT   1017 AT TIME STEP      3, STRESS PERIOD     11
 UBDSV06 SAVING              GHB IN MODEL GEO_MODEL        PACKAGE GEO_MODEL       CONNECTED TO MODEL GEO_MODEL        PACKAGE GHB_0            ON UNIT   1017 AT TIME STEP      3, STRESS PERIOD     11
 UBDSV06 SAVING              RCH IN MODEL GEO_MODEL        PACKAGE GEO_MODEL       CONNECTED TO MODEL GEO_MODEL        PACKAGE RCH_0            ON UNIT   1017 AT TIME STEP      3, STRESS PERIOD     11
 UBDSV06 SAVING            EVTA  IN MODEL GEO_MODEL        PACKAGE GEO_MODEL       CONNECTED TO MODEL GEO_MODEL        PACKAGE EVTA_0           ON UNIT   1017 AT TIME STEP      3, STRESS PERIOD     11

 HEAD WILL BE SAVED ON UNIT 1018 AT END OF TIME STEP    3, STRESS PERIOD   11

end timestep


start timestep kper="11" kstp="4" mode="normal"

 UBDSV1 SAVING           STO-SS ON UNIT   1017 AT TIME STEP      4, STRESS PERIOD     11
 UBDSV1 SAVING     FLOW-JA-FACE ON UNIT   1017 AT TIME STEP      4, STRESS PERIOD     11
 UBDSV06 SAVING       DATA-SPDIS IN MODEL GEO_MODEL        PACKAGE NPF             CONNECTED TO MODEL GEO_MODEL        PACKAGE NPF              ON UNIT   1017 AT TIME STEP      4, STRESS PERIOD     11
 UBDSV06 SAVING              WEL IN MODEL GEO_MODEL        PACKAGE GEO_MODEL       CONNECTED TO MODEL GEO_MODEL        PACKAGE WEL_0            ON UNIT   1017 AT TIME STEP      4, STRESS PERIOD     11
 UBDSV06 SAVING              RIV IN MODEL GEO_MODEL        PACKAGE GEO_MODEL       CONNECTED TO MODEL GEO_MODEL        PACKAGE RIV_0            ON UNIT   1017 AT TIME STEP      4, STRESS PERIOD     11
 UBDSV06 SAVING              GHB IN MODEL GEO_MODEL        PACKAGE GEO_MODEL       CONNECTED TO MODEL GEO_MODEL        PACKAGE GHB_0            ON UNIT   1017 AT TIME STEP      4, STRESS PERIOD     11
 UBDSV06 SAVING              RCH IN MODEL GEO_MODEL        PACKAGE GEO_MODEL       CONNECTED TO MODEL GEO_MODEL        PACKAGE RCH_0            ON UNIT   1017 AT TIME STEP      4, STRESS PERIOD     11
 UBDSV06 SAVING            EVTA  IN MODEL GEO_MODEL        PACKAGE GEO_MODEL       CONNECTED TO MODEL GEO_MODEL        PACKAGE EVTA_0           ON UNIT   1017 AT TIME STEP      4, STRESS PERIOD     11

 HEAD WILL BE SAVED ON UNIT 1018 AT END OF TIME STEP    4, STRESS PERIOD   11


  VOLUME BUDGET FOR ENTIRE MODEL AT END OF TIME STEP    4, STRESS PERIOD  11
  ---------------------------------------------------------------------------------------------------

     CUMULATIVE VOLUME      L**3       RATES FOR THIS TIME STEP      L**3/T          PACKAGE NAME    
     ------------------                 ------------------------                     ----------------

           IN:                                      IN:
           ---                                      ---
              STO-SS =       87645.3852                STO-SS =       1.2745E-09     STORAGE                          
                 WEL =           0.0000                   WEL =           0.0000     WEL_0                            
                 RIV =   133257740.0094                   RIV =           0.7714     RIV_0                            
                 GHB =    57137746.7984                   GHB =           0.3308     GHB_0                            
                 RCH =     5330680.3680                   RCH =       3.0849E-02     RCH_0                            
                EVTA =           0.0000                  EVTA =           0.0000     EVTA_0                           

            TOTAL IN =   195813812.5610              TOTAL IN =           1.1331

          OUT:                                     OUT:
          ----                                     ----
              STO-SS =        3503.6541                STO-SS =       2.4688E-11     STORAGE                          
                 WEL =    77760000.0000                   WEL =           0.4500     WEL_0                            
                 RIV =    71942266.3071                   RIV =           0.4161     RIV_0                            
                 GHB =    41568536.5793                   GHB =           0.2405     GHB_0                            
                 RCH =           0.0000                   RCH =           0.0000     RCH_0                            
                EVTA =     4577323.1873                  EVTA =       2.6475E-02     EVTA_0                           

           TOTAL OUT =   195851629.7278             TOTAL OUT =           1.1331

            IN - OUT =      -37817.1668              IN - OUT =      -1.6184E-05

 PERCENT DISCREPANCY =          -0.02     PERCENT DISCREPANCY =          -0.00




         TIME SUMMARY AT END OF TIME STEP    4 IN STRESS PERIOD   11
                    SECONDS     MINUTES      HOURS       DAYS        YEARS
                    -----------------------------------------------------------
   TIME STEP LENGTH 4.32000E+06  72000.      1200.0      50.000     0.13689    
 STRESS PERIOD TIME 1.72800E+07 2.88000E+05  4800.0      200.00     0.54757    
         TOTAL TIME 1.72800E+08 2.88000E+06  48000.      2000.0      5.4757    


end timestep

