                                   MODFLOW 6
                U.S. GEOLOGICAL SURVEY MODULAR HYDROLOGIC MODEL
                          GROUNDWATER FLOW MODEL (GWF)
                            VERSION 6.3.0 03/04/2022

   MODFLOW 6 compiled Mar 02 2022 15:29:04 with Intel(R) Fortran Intel(R) 64
   Compiler Classic for applications running on Intel(R) 64, Version 2021.5.0
                             Build 20211109_000000

This software has been approved for release by the U.S. Geological 
Survey (USGS). Although the software has been subjected to rigorous 
review, the USGS reserves the right to update the software as needed 
pursuant to further analysis and review. No warranty, expressed or 
implied, is made by the USGS or the U.S. Government as to the 
functionality of the software and related material nor shall the 
fact of release constitute any such warranty. Furthermore, the 
software is released on condition that neither the USGS nor the U.S. 
Government shall be held liable for any damages resulting from its 
authorized or unauthorized use. Also refer to the USGS Water 
Resources Software User Rights Notice for complete use, copyright, 
and distribution information.


As a work of the United States Government, this USGS product is 
in the public domain within the United States. You can copy, 
modify, distribute, and perform the work, even for commercial 
purposes, all without asking permission. Additionally, USGS 
waives copyright and related rights in the work worldwide 
through CC0 1.0 Universal Public Domain Dedication 
(https://creativecommons.org/publicdomain/zero/1.0/).

The following GNU Lesser General Public License (LGPL) libraries
are used in this USGS product:

    SPARSKIT version 2.0
      ilut, luson, and qsplit 
      (https://www-users.cse.umn.edu/~saad/software/SPARSKIT/)

    RCM - Reverse Cuthill McKee Ordering
      (https://people.math.sc.edu/Burkardt/f_src/rcm/rcm.html)

    BLAS - Basic Linear Algebra Subprograms Level 1
      (https://people.math.sc.edu/Burkardt/f_src/blas1_d/blas1_d.html)

    SPARSEKIT - Sparse Matrix Utility Package
      amux, dperm, dvperm, rperm, and cperm
      (https://people.sc.fsu.edu/~jburkardt/f77_src/sparsekit/sparsekit.html)

The following BSD-3 License libraries are used in this USGS product:

    Modern Fortran DAG Library
      Copyright (c) 2018, Jacob Williams
      All rights reserved.
      (https://github.com/jacobwilliams/daglib)

MODFLOW 6 compiler options: /Isrc\libmf6core.a.p /Isrc /I..\src
/Isrc\libmf6_external.a.p /MTd /nologo /warn:general /warn:truncated_source
/stand:f08 /Zi /traceback /O2 /Zi /fpe:0 /fpp /Qdiag-disable:7416
/Qdiag-disable:7025 /Qdiag-disable:5268
/Fdsrc\libmf6core.a.p\Utilities_compilerversion.F90.pdb
/module:src\libmf6core.a.p
/Fosrc/libmf6core.a.p/Utilities_compilerversion.F90.obj /c

System command used to initiate simulation:
../exe/mf6.exe

MODFLOW was compiled using uniform precision.

Real Variables
  KIND: 8
  TINY (smallest non-zero value):    2.225074-308
  HUGE (largest value):    1.797693+308
  PRECISION: 15
  BIT SIZE: 64

Integer Variables
  KIND: 4
  HUGE (largest value): 2147483647
  BIT SIZE: 32

Long Integer Variables
  KIND: 8
  HUGE (largest value): 9223372036854775807
  BIT SIZE: 64

Logical Variables
  KIND: 4
  BIT SIZE: 32
 

 OPENED .\geo_model.disv
 FILE TYPE:DISV6                  UNIT 1005   STATUS:OLD                 
 FORMAT:FORMATTED              ACCESS:SEQUENTIAL          
 ACTION:READ                


 OPENED .\geo_model.ic
 FILE TYPE:IC6                    UNIT 1006   STATUS:OLD                 
 FORMAT:FORMATTED              ACCESS:SEQUENTIAL          
 ACTION:READ                


 OPENED .\geo_model.npf
 FILE TYPE:NPF6                   UNIT 1007   STATUS:OLD                 
 FORMAT:FORMATTED              ACCESS:SEQUENTIAL          
 ACTION:READ                


 OPENED .\geo_model.sto
 FILE TYPE:STO6                   UNIT 1008   STATUS:OLD                 
 FORMAT:FORMATTED              ACCESS:SEQUENTIAL          
 ACTION:READ                


 OPENED .\geo_model.evta
 FILE TYPE:EVT6                   UNIT 1009   STATUS:OLD                 
 FORMAT:FORMATTED              ACCESS:SEQUENTIAL          
 ACTION:READ                


 OPENED .\geo_model.rch
 FILE TYPE:RCH6                   UNIT 1010   STATUS:OLD                 
 FORMAT:FORMATTED              ACCESS:SEQUENTIAL          
 ACTION:READ                


 OPENED .\geo_model.wel
 FILE TYPE:WEL6                   UNIT 1011   STATUS:OLD                 
 FORMAT:FORMATTED              ACCESS:SEQUENTIAL          
 ACTION:READ                


 OPENED .\geo_model.riv
 FILE TYPE:RIV6                   UNIT 1012   STATUS:OLD                 
 FORMAT:FORMATTED              ACCESS:SEQUENTIAL          
 ACTION:READ                


 OPENED .\geo_model.ghb
 FILE TYPE:GHB6                   UNIT 1013   STATUS:OLD                 
 FORMAT:FORMATTED              ACCESS:SEQUENTIAL          
 ACTION:READ                


 OPENED .\geo_model.oc
 FILE TYPE:OC6                    UNIT 1014   STATUS:OLD                 
 FORMAT:FORMATTED              ACCESS:SEQUENTIAL          
 ACTION:READ                

 NAMEFILE OPTIONS:
    FLOWS WILL BE SAVED TO BUDGET FILE SPECIFIED IN OUTPUT CONTROL
    NEWTON-RAPHSON method enabled for the model.
    NEWTON-RAPHSON UNDER-RELAXATION based on the bottom elevation of the model will be applied to the model.

 DISV -- VERTEX GRID DISCRETIZATION PACKAGE, VERSION 1 : 12/23/2015 - INPUT READ FROM UNIT 1005


 # File generated by Flopy version 3.3.5 on 06/03/2022 at 15:50:39.

 PROCESSING DISCRETIZATION OPTIONS
   MODEL LENGTH UNIT IS UNDEFINED
 END OF DISCRETIZATION OPTIONS

 PROCESSING DISCRETIZATION DIMENSIONS
   NLAY = 3
   NCPL = 1362
   NVERT = 2724
 END OF DISCRETIZATION DIMENSIONS

 PROCESSING GRIDDATA
 END PROCESSING GRIDDATA

 PROCESSING VERTICES
   SUCCESSFULLY READ 2724 (X,Y) COORDINATES
   MINIMUM X COORDINATE =     353300.000000000    
   MAXIMUM X COORDINATE =     356400.000000000    
   MINIMUM Y COORDINATE =     8547900.00000000    
   MAXIMUM Y COORDINATE =     8549600.00000000    
 END PROCESSING VERTICES

 PROCESSING CELL2D
   SUCCESSFULLY READ 1362 CELL2D INFORMATION ENTRIES
   MINIMUM X CELL CENTER =     353312.887000000    
   MAXIMUM X CELL CENTER =     356389.577000000    
   MINIMUM Y CELL CENTER =     8547987.78000000    
   MAXIMUM Y CELL CENTER =     8549550.04000000    
   MAXIMUM NUMBER OF CELL2D VERTICES IS 11 FOR CELL 140
 END PROCESSING VERTICES

 NPF -- NODE PROPERTY FLOW PACKAGE, VERSION 1, 3/30/2015 INPUT READ FROM UNIT 1007


 # File generated by Flopy version 3.3.5 on 06/03/2022 at 15:50:39.
 PROCESSING NPF OPTIONS
    SPECIFIC DISCHARGE WILL BE CALCULATED AT CELL CENTERS AND WRITTEN TO DATA-SPDIS IN BUDGET FILE WHEN REQUESTED.
 END OF NPF OPTIONS

 WEL   -- WEL PACKAGE, VERSION 8, 2/22/2014 INPUT READ FROM UNIT 1011
 # File generated by Flopy version 3.3.5 on 06/03/2022 at 15:50:39.

 PROCESSING WEL OPTIONS
 END OF WEL OPTIONS

 PROCESSING WEL DIMENSIONS
    MAXBOUND =       3
 END OF WEL DIMENSIONS

 RIV   -- RIV PACKAGE, VERSION 8, 2/22/2014 INPUT READ FROM UNIT 1012
 # File generated by Flopy version 3.3.5 on 06/03/2022 at 15:50:39.

 PROCESSING RIV OPTIONS
 END OF RIV OPTIONS

 PROCESSING RIV DIMENSIONS
    MAXBOUND =     187
 END OF RIV DIMENSIONS

 GHB   -- GHB PACKAGE, VERSION 8, 2/22/2014 INPUT READ FROM UNIT 1013
 # File generated by Flopy version 3.3.5 on 06/03/2022 at 15:50:39.

 PROCESSING GHB OPTIONS
 END OF GHB OPTIONS

 PROCESSING GHB DIMENSIONS
    MAXBOUND =      29
 END OF GHB DIMENSIONS

 RCH   -- RCH PACKAGE, VERSION 8, 2/22/2014 INPUT READ FROM UNIT 1010
 # File generated by Flopy version 3.3.5 on 06/03/2022 at 15:50:39.

 PROCESSING RCH OPTIONS
 END OF RCH OPTIONS

 PROCESSING RCH DIMENSIONS
    MAXBOUND =    1111
 END OF RCH DIMENSIONS

 EVT   -- EVT PACKAGE, VERSION 8, 2/22/2014 INPUT READ FROM UNIT 1009
 # File generated by Flopy version 3.3.5 on 06/03/2022 at 15:50:39.

 PROCESSING EVT OPTIONS
    EVAPOTRANSPIRATION INPUT WILL BE READ AS ARRAYS.
 END OF EVTA OPTIONS

 IC -- INITIAL CONDITIONS PACKAGE, VERSION 8, 3/28/2015 INPUT READ FROM UNIT 1006
 # File generated by Flopy version 3.3.5 on 06/03/2022 at 15:50:39.
 PROCESSING GRIDDATA
 END PROCESSING GRIDDATA
 PROCESSING GRIDDATA

                ICELLTYPE = 1 FOR LAYER 1

                ICELLTYPE = 1 FOR LAYER 2

                ICELLTYPE = 0 FOR LAYER 3

                        K =  0.1000000E-04 FOR LAYER 1

                        K =  0.5000000E-03 FOR LAYER 2

                        K =  0.2000000E-03 FOR LAYER 3
 K33 not provided.  Assuming K33 = K.
 K22 not provided.  Assuming K22 = K.
 END PROCESSING GRIDDATA

 STO -- STORAGE PACKAGE, VERSION 1, 5/19/2014 INPUT READ FROM UNIT 1008


 # File generated by Flopy version 3.3.5 on 06/03/2022 at 15:50:39.
 PROCESSING STORAGE OPTIONS
 END OF STORAGE OPTIONS
 PROCESSING GRIDDATA

                 ICONVERT = 0

         SPECIFIC STORAGE =  0.1000000E-04

           SPECIFIC YIELD =  0.1500000    
 END PROCESSING GRIDDATA
    BINARY GRID INFORMATION WILL BE WRITTEN TO:
      UNIT NUMBER: 1016
      FILE NAME: C:\Users\saulm\Documents\jose_Z\github\dev_mode\examples\out\geospacial\model\geo_model.disv.grb

 OPENED C:\Users\saulm\Documents\jose_Z\github\dev_mode\examples\out\geospacial\model\geo_model.disv.grb
 FILE TYPE:DATA(BINARY)   UNIT 1016   STATUS:REPLACE             
 FORMAT:UNFORMATTED            ACCESS:STREAM              
 ACTION:READWRITE           

      THE LAST TIME STEP WILL BE PRINTED
      THE LAST TIME STEP WILL BE PRINTED
 # File generated by Flopy version 3.3.5 on 06/03/2022 at 15:50:39.

 PROCESSING OC OPTIONS

    BUDGET INFORMATION WILL BE WRITTEN TO:
      UNIT NUMBER: 1017
      FILE NAME: geo_model.cbc

 OPENED geo_model.cbc
 FILE TYPE:DATA(BINARY)   UNIT 1017   STATUS:REPLACE             
 FORMAT:UNFORMATTED            ACCESS:STREAM              
 ACTION:READWRITE           

    HEAD INFORMATION WILL BE WRITTEN TO:
      UNIT NUMBER: 1018
      FILE NAME: geo_model.hds

 OPENED geo_model.hds
 FILE TYPE:DATA(BINARY)   UNIT 1018   STATUS:REPLACE             
 FORMAT:UNFORMATTED            ACCESS:STREAM              
 ACTION:READWRITE           

 END OF OC OPTIONS

start timestep kper="1" kstp="1" mode="normal"


 BEGIN READING OUTPUT CONTROL FOR STRESS PERIOD 1
      ALL TIME STEPS WILL BE SAVED
      ALL TIME STEPS WILL BE SAVED

 END READING OUTPUT CONTROL FOR STRESS PERIOD 1


 STRESS PERIOD 1 IS TRANSIENT


 REUSING WELS FROM LAST STRESS PERIOD

      LAYER OR NODE INDEX = 2

  EVAPOTRANSPIRATION RATE =  0.3805175E-07

         EXTINCTION DEPTH =   1.000000    
 UBDSV1 SAVING           STO-SS ON UNIT   1017 AT TIME STEP      1, STRESS PERIOD      1
 UBDSV1 SAVING     FLOW-JA-FACE ON UNIT   1017 AT TIME STEP      1, STRESS PERIOD      1
 UBDSV06 SAVING       DATA-SPDIS IN MODEL GEO_MODEL        PACKAGE NPF             CONNECTED TO MODEL GEO_MODEL        PACKAGE NPF              ON UNIT   1017 AT TIME STEP      1, STRESS PERIOD      1
 UBDSV06 SAVING              WEL IN MODEL GEO_MODEL        PACKAGE GEO_MODEL       CONNECTED TO MODEL GEO_MODEL        PACKAGE WEL_0            ON UNIT   1017 AT TIME STEP      1, STRESS PERIOD      1
 UBDSV06 SAVING              RIV IN MODEL GEO_MODEL        PACKAGE GEO_MODEL       CONNECTED TO MODEL GEO_MODEL        PACKAGE RIV_0            ON UNIT   1017 AT TIME STEP      1, STRESS PERIOD      1
 UBDSV06 SAVING              GHB IN MODEL GEO_MODEL        PACKAGE GEO_MODEL       CONNECTED TO MODEL GEO_MODEL        PACKAGE GHB_0            ON UNIT   1017 AT TIME STEP      1, STRESS PERIOD      1
 UBDSV06 SAVING              RCH IN MODEL GEO_MODEL        PACKAGE GEO_MODEL       CONNECTED TO MODEL GEO_MODEL        PACKAGE RCH_0            ON UNIT   1017 AT TIME STEP      1, STRESS PERIOD      1
 UBDSV06 SAVING            EVTA  IN MODEL GEO_MODEL        PACKAGE GEO_MODEL       CONNECTED TO MODEL GEO_MODEL        PACKAGE EVTA_0           ON UNIT   1017 AT TIME STEP      1, STRESS PERIOD      1

 HEAD WILL BE SAVED ON UNIT 1018 AT END OF TIME STEP    1, STRESS PERIOD    1


  VOLUME BUDGET FOR ENTIRE MODEL AT END OF TIME STEP    1, STRESS PERIOD   1
  ---------------------------------------------------------------------------------------------------

     CUMULATIVE VOLUME      L**3       RATES FOR THIS TIME STEP      L**3/T          PACKAGE NAME    
     ------------------                 ------------------------                     ----------------

           IN:                                      IN:
           ---                                      ---
              STO-SS =         189.6421                STO-SS =         189.6421     STORAGE                          
                 WEL =           0.0000                   WEL =           0.0000     WEL_0                            
                 RIV =       3.6499E-03                   RIV =       3.6499E-03     RIV_0                            
                 GHB =           3.3920                   GHB =           3.3920     GHB_0                            
                 RCH =       3.1074E-02                   RCH =       3.1074E-02     RCH_0                            
                EVTA =           0.0000                  EVTA =           0.0000     EVTA_0                           

            TOTAL IN =         193.0689              TOTAL IN =         193.0689

          OUT:                                     OUT:
          ----                                     ----
              STO-SS =         191.4468                STO-SS =         191.4468     STORAGE                          
                 WEL =           0.0000                   WEL =           0.0000     WEL_0                            
                 RIV =       4.0513E-03                   RIV =       4.0513E-03     RIV_0                            
                 GHB =           1.4252                   GHB =           1.4252     GHB_0                            
                 RCH =           0.0000                   RCH =           0.0000     RCH_0                            
                EVTA =           0.1929                  EVTA =           0.1929     EVTA_0                           

           TOTAL OUT =         193.0689             TOTAL OUT =         193.0689

            IN - OUT =       1.4783E-08              IN - OUT =       1.4783E-08

 PERCENT DISCREPANCY =           0.00     PERCENT DISCREPANCY =           0.00




         TIME SUMMARY AT END OF TIME STEP    1 IN STRESS PERIOD    1
                    SECONDS     MINUTES      HOURS       DAYS        YEARS
                    -----------------------------------------------------------
   TIME STEP LENGTH  1.0000     1.66667E-02 2.77778E-04 1.15741E-05 3.16881E-08
 STRESS PERIOD TIME  1.0000     1.66667E-02 2.77778E-04 1.15741E-05 3.16881E-08
         TOTAL TIME  1.0000     1.66667E-02 2.77778E-04 1.15741E-05 3.16881E-08


end timestep


start timestep kper="2" kstp="1" mode="normal"


 END OF FILE DETECTED IN OUTPUT CONTROL.
 CURRENT OUTPUT CONTROL SETTINGS WILL BE 
 REPEATED UNTIL THE END OF THE SIMULATION.

 OUTPUT CONTROL FOR STRESS PERIOD 2 IS REPEATED USING SETTINGS FROM A PREVIOUS STRESS PERIOD.


 STRESS PERIOD 2 IS TRANSIENT


 REUSING RIVS FROM LAST STRESS PERIOD

 REUSING GHBS FROM LAST STRESS PERIOD

 REUSING RCHS FROM LAST STRESS PERIOD

 REUSING EVTS FROM LAST STRESS PERIOD
 UBDSV1 SAVING           STO-SS ON UNIT   1017 AT TIME STEP      1, STRESS PERIOD      2
 UBDSV1 SAVING     FLOW-JA-FACE ON UNIT   1017 AT TIME STEP      1, STRESS PERIOD      2
 UBDSV06 SAVING       DATA-SPDIS IN MODEL GEO_MODEL        PACKAGE NPF             CONNECTED TO MODEL GEO_MODEL        PACKAGE NPF              ON UNIT   1017 AT TIME STEP      1, STRESS PERIOD      2
 UBDSV06 SAVING              WEL IN MODEL GEO_MODEL        PACKAGE GEO_MODEL       CONNECTED TO MODEL GEO_MODEL        PACKAGE WEL_0            ON UNIT   1017 AT TIME STEP      1, STRESS PERIOD      2
 UBDSV06 SAVING              RIV IN MODEL GEO_MODEL        PACKAGE GEO_MODEL       CONNECTED TO MODEL GEO_MODEL        PACKAGE RIV_0            ON UNIT   1017 AT TIME STEP      1, STRESS PERIOD      2
 UBDSV06 SAVING              GHB IN MODEL GEO_MODEL        PACKAGE GEO_MODEL       CONNECTED TO MODEL GEO_MODEL        PACKAGE GHB_0            ON UNIT   1017 AT TIME STEP      1, STRESS PERIOD      2
 UBDSV06 SAVING              RCH IN MODEL GEO_MODEL        PACKAGE GEO_MODEL       CONNECTED TO MODEL GEO_MODEL        PACKAGE RCH_0            ON UNIT   1017 AT TIME STEP      1, STRESS PERIOD      2
 UBDSV06 SAVING            EVTA  IN MODEL GEO_MODEL        PACKAGE GEO_MODEL       CONNECTED TO MODEL GEO_MODEL        PACKAGE EVTA_0           ON UNIT   1017 AT TIME STEP      1, STRESS PERIOD      2

 HEAD WILL BE SAVED ON UNIT 1018 AT END OF TIME STEP    1, STRESS PERIOD    2

end timestep


start timestep kper="2" kstp="2" mode="normal"

 UBDSV1 SAVING           STO-SS ON UNIT   1017 AT TIME STEP      2, STRESS PERIOD      2
 UBDSV1 SAVING     FLOW-JA-FACE ON UNIT   1017 AT TIME STEP      2, STRESS PERIOD      2
 UBDSV06 SAVING       DATA-SPDIS IN MODEL GEO_MODEL        PACKAGE NPF             CONNECTED TO MODEL GEO_MODEL        PACKAGE NPF              ON UNIT   1017 AT TIME STEP      2, STRESS PERIOD      2
 UBDSV06 SAVING              WEL IN MODEL GEO_MODEL        PACKAGE GEO_MODEL       CONNECTED TO MODEL GEO_MODEL        PACKAGE WEL_0            ON UNIT   1017 AT TIME STEP      2, STRESS PERIOD      2
 UBDSV06 SAVING              RIV IN MODEL GEO_MODEL        PACKAGE GEO_MODEL       CONNECTED TO MODEL GEO_MODEL        PACKAGE RIV_0            ON UNIT   1017 AT TIME STEP      2, STRESS PERIOD      2
 UBDSV06 SAVING              GHB IN MODEL GEO_MODEL        PACKAGE GEO_MODEL       CONNECTED TO MODEL GEO_MODEL        PACKAGE GHB_0            ON UNIT   1017 AT TIME STEP      2, STRESS PERIOD      2
 UBDSV06 SAVING              RCH IN MODEL GEO_MODEL        PACKAGE GEO_MODEL       CONNECTED TO MODEL GEO_MODEL        PACKAGE RCH_0            ON UNIT   1017 AT TIME STEP      2, STRESS PERIOD      2
 UBDSV06 SAVING            EVTA  IN MODEL GEO_MODEL        PACKAGE GEO_MODEL       CONNECTED TO MODEL GEO_MODEL        PACKAGE EVTA_0           ON UNIT   1017 AT TIME STEP      2, STRESS PERIOD      2

 HEAD WILL BE SAVED ON UNIT 1018 AT END OF TIME STEP    2, STRESS PERIOD    2

end timestep


start timestep kper="2" kstp="3" mode="normal"

 UBDSV1 SAVING           STO-SS ON UNIT   1017 AT TIME STEP      3, STRESS PERIOD      2
 UBDSV1 SAVING     FLOW-JA-FACE ON UNIT   1017 AT TIME STEP      3, STRESS PERIOD      2
 UBDSV06 SAVING       DATA-SPDIS IN MODEL GEO_MODEL        PACKAGE NPF             CONNECTED TO MODEL GEO_MODEL        PACKAGE NPF              ON UNIT   1017 AT TIME STEP      3, STRESS PERIOD      2
 UBDSV06 SAVING              WEL IN MODEL GEO_MODEL        PACKAGE GEO_MODEL       CONNECTED TO MODEL GEO_MODEL        PACKAGE WEL_0            ON UNIT   1017 AT TIME STEP      3, STRESS PERIOD      2
 UBDSV06 SAVING              RIV IN MODEL GEO_MODEL        PACKAGE GEO_MODEL       CONNECTED TO MODEL GEO_MODEL        PACKAGE RIV_0            ON UNIT   1017 AT TIME STEP      3, STRESS PERIOD      2
 UBDSV06 SAVING              GHB IN MODEL GEO_MODEL        PACKAGE GEO_MODEL       CONNECTED TO MODEL GEO_MODEL        PACKAGE GHB_0            ON UNIT   1017 AT TIME STEP      3, STRESS PERIOD      2
 UBDSV06 SAVING              RCH IN MODEL GEO_MODEL        PACKAGE GEO_MODEL       CONNECTED TO MODEL GEO_MODEL        PACKAGE RCH_0            ON UNIT   1017 AT TIME STEP      3, STRESS PERIOD      2
 UBDSV06 SAVING            EVTA  IN MODEL GEO_MODEL        PACKAGE GEO_MODEL       CONNECTED TO MODEL GEO_MODEL        PACKAGE EVTA_0           ON UNIT   1017 AT TIME STEP      3, STRESS PERIOD      2

 HEAD WILL BE SAVED ON UNIT 1018 AT END OF TIME STEP    3, STRESS PERIOD    2

end timestep


start timestep kper="2" kstp="4" mode="normal"

 UBDSV1 SAVING           STO-SS ON UNIT   1017 AT TIME STEP      4, STRESS PERIOD      2
 UBDSV1 SAVING     FLOW-JA-FACE ON UNIT   1017 AT TIME STEP      4, STRESS PERIOD      2
 UBDSV06 SAVING       DATA-SPDIS IN MODEL GEO_MODEL        PACKAGE NPF             CONNECTED TO MODEL GEO_MODEL        PACKAGE NPF              ON UNIT   1017 AT TIME STEP      4, STRESS PERIOD      2
 UBDSV06 SAVING              WEL IN MODEL GEO_MODEL        PACKAGE GEO_MODEL       CONNECTED TO MODEL GEO_MODEL        PACKAGE WEL_0            ON UNIT   1017 AT TIME STEP      4, STRESS PERIOD      2
 UBDSV06 SAVING              RIV IN MODEL GEO_MODEL        PACKAGE GEO_MODEL       CONNECTED TO MODEL GEO_MODEL        PACKAGE RIV_0            ON UNIT   1017 AT TIME STEP      4, STRESS PERIOD      2
 UBDSV06 SAVING              GHB IN MODEL GEO_MODEL        PACKAGE GEO_MODEL       CONNECTED TO MODEL GEO_MODEL        PACKAGE GHB_0            ON UNIT   1017 AT TIME STEP      4, STRESS PERIOD      2
 UBDSV06 SAVING              RCH IN MODEL GEO_MODEL        PACKAGE GEO_MODEL       CONNECTED TO MODEL GEO_MODEL        PACKAGE RCH_0            ON UNIT   1017 AT TIME STEP      4, STRESS PERIOD      2
 UBDSV06 SAVING            EVTA  IN MODEL GEO_MODEL        PACKAGE GEO_MODEL       CONNECTED TO MODEL GEO_MODEL        PACKAGE EVTA_0           ON UNIT   1017 AT TIME STEP      4, STRESS PERIOD      2

 HEAD WILL BE SAVED ON UNIT 1018 AT END OF TIME STEP    4, STRESS PERIOD    2


  VOLUME BUDGET FOR ENTIRE MODEL AT END OF TIME STEP    4, STRESS PERIOD   2
  ---------------------------------------------------------------------------------------------------

     CUMULATIVE VOLUME      L**3       RATES FOR THIS TIME STEP      L**3/T          PACKAGE NAME    
     ------------------                 ------------------------                     ----------------

           IN:                                      IN:
           ---                                      ---
              STO-SS =       97632.9442                STO-SS =       2.7171E-07     STORAGE                          
                 WEL =           0.0000                   WEL =           0.0000     WEL_0                            
                 RIV =    12640004.4235                   RIV =           0.7348     RIV_0                            
                 GHB =    43463601.8372                   GHB =           2.5153     GHB_0                            
                 RCH =      536961.9417                   RCH =       3.1074E-02     RCH_0                            
                EVTA =           0.0000                  EVTA =           0.0000     EVTA_0                           

            TOTAL IN =    56738201.1467              TOTAL IN =           3.2811

          OUT:                                     OUT:
          ----                                     ----
              STO-SS =        6186.9374                STO-SS =           0.0000     STORAGE                          
                 WEL =     7776000.0000                   WEL =           0.4500     WEL_0                            
                 RIV =     5056788.2176                   RIV =           0.2910     RIV_0                            
                 GHB =    43274341.8004                   GHB =           2.5043     GHB_0                            
                 RCH =           0.0000                   RCH =           0.0000     RCH_0                            
                EVTA =      632814.0096                  EVTA =       3.6447E-02     EVTA_0                           

           TOTAL OUT =    56746130.9650             TOTAL OUT =           3.2818

            IN - OUT =       -7929.8183              IN - OUT =      -6.4543E-04

 PERCENT DISCREPANCY =          -0.01     PERCENT DISCREPANCY =          -0.02




         TIME SUMMARY AT END OF TIME STEP    4 IN STRESS PERIOD    2
                    SECONDS     MINUTES      HOURS       DAYS        YEARS
                    -----------------------------------------------------------
   TIME STEP LENGTH 4.32000E+06  72000.      1200.0      50.000     0.13689    
 STRESS PERIOD TIME 1.72800E+07 2.88000E+05  4800.0      200.00     0.54757    
         TOTAL TIME 1.72800E+07 2.88000E+05  4800.0      200.00     0.54757    


end timestep


start timestep kper="3" kstp="1" mode="normal"


 OUTPUT CONTROL FOR STRESS PERIOD 3 IS REPEATED USING SETTINGS FROM A PREVIOUS STRESS PERIOD.


 STRESS PERIOD 3 IS TRANSIENT


 REUSING WELS FROM LAST STRESS PERIOD

 REUSING RIVS FROM LAST STRESS PERIOD

 REUSING GHBS FROM LAST STRESS PERIOD

 REUSING RCHS FROM LAST STRESS PERIOD

 REUSING EVTS FROM LAST STRESS PERIOD
 UBDSV1 SAVING           STO-SS ON UNIT   1017 AT TIME STEP      1, STRESS PERIOD      3
 UBDSV1 SAVING     FLOW-JA-FACE ON UNIT   1017 AT TIME STEP      1, STRESS PERIOD      3
 UBDSV06 SAVING       DATA-SPDIS IN MODEL GEO_MODEL        PACKAGE NPF             CONNECTED TO MODEL GEO_MODEL        PACKAGE NPF              ON UNIT   1017 AT TIME STEP      1, STRESS PERIOD      3
 UBDSV06 SAVING              WEL IN MODEL GEO_MODEL        PACKAGE GEO_MODEL       CONNECTED TO MODEL GEO_MODEL        PACKAGE WEL_0            ON UNIT   1017 AT TIME STEP      1, STRESS PERIOD      3
 UBDSV06 SAVING              RIV IN MODEL GEO_MODEL        PACKAGE GEO_MODEL       CONNECTED TO MODEL GEO_MODEL        PACKAGE RIV_0            ON UNIT   1017 AT TIME STEP      1, STRESS PERIOD      3
 UBDSV06 SAVING              GHB IN MODEL GEO_MODEL        PACKAGE GEO_MODEL       CONNECTED TO MODEL GEO_MODEL        PACKAGE GHB_0            ON UNIT   1017 AT TIME STEP      1, STRESS PERIOD      3
 UBDSV06 SAVING              RCH IN MODEL GEO_MODEL        PACKAGE GEO_MODEL       CONNECTED TO MODEL GEO_MODEL        PACKAGE RCH_0            ON UNIT   1017 AT TIME STEP      1, STRESS PERIOD      3
 UBDSV06 SAVING            EVTA  IN MODEL GEO_MODEL        PACKAGE GEO_MODEL       CONNECTED TO MODEL GEO_MODEL        PACKAGE EVTA_0           ON UNIT   1017 AT TIME STEP      1, STRESS PERIOD      3

 HEAD WILL BE SAVED ON UNIT 1018 AT END OF TIME STEP    1, STRESS PERIOD    3

end timestep


start timestep kper="3" kstp="2" mode="normal"

 UBDSV1 SAVING           STO-SS ON UNIT   1017 AT TIME STEP      2, STRESS PERIOD      3
 UBDSV1 SAVING     FLOW-JA-FACE ON UNIT   1017 AT TIME STEP      2, STRESS PERIOD      3
 UBDSV06 SAVING       DATA-SPDIS IN MODEL GEO_MODEL        PACKAGE NPF             CONNECTED TO MODEL GEO_MODEL        PACKAGE NPF              ON UNIT   1017 AT TIME STEP      2, STRESS PERIOD      3
 UBDSV06 SAVING              WEL IN MODEL GEO_MODEL        PACKAGE GEO_MODEL       CONNECTED TO MODEL GEO_MODEL        PACKAGE WEL_0            ON UNIT   1017 AT TIME STEP      2, STRESS PERIOD      3
 UBDSV06 SAVING              RIV IN MODEL GEO_MODEL        PACKAGE GEO_MODEL       CONNECTED TO MODEL GEO_MODEL        PACKAGE RIV_0            ON UNIT   1017 AT TIME STEP      2, STRESS PERIOD      3
 UBDSV06 SAVING              GHB IN MODEL GEO_MODEL        PACKAGE GEO_MODEL       CONNECTED TO MODEL GEO_MODEL        PACKAGE GHB_0            ON UNIT   1017 AT TIME STEP      2, STRESS PERIOD      3
 UBDSV06 SAVING              RCH IN MODEL GEO_MODEL        PACKAGE GEO_MODEL       CONNECTED TO MODEL GEO_MODEL        PACKAGE RCH_0            ON UNIT   1017 AT TIME STEP      2, STRESS PERIOD      3
 UBDSV06 SAVING            EVTA  IN MODEL GEO_MODEL        PACKAGE GEO_MODEL       CONNECTED TO MODEL GEO_MODEL        PACKAGE EVTA_0           ON UNIT   1017 AT TIME STEP      2, STRESS PERIOD      3

 HEAD WILL BE SAVED ON UNIT 1018 AT END OF TIME STEP    2, STRESS PERIOD    3

end timestep


start timestep kper="3" kstp="3" mode="normal"

 UBDSV1 SAVING           STO-SS ON UNIT   1017 AT TIME STEP      3, STRESS PERIOD      3
 UBDSV1 SAVING     FLOW-JA-FACE ON UNIT   1017 AT TIME STEP      3, STRESS PERIOD      3
 UBDSV06 SAVING       DATA-SPDIS IN MODEL GEO_MODEL        PACKAGE NPF             CONNECTED TO MODEL GEO_MODEL        PACKAGE NPF              ON UNIT   1017 AT TIME STEP      3, STRESS PERIOD      3
 UBDSV06 SAVING              WEL IN MODEL GEO_MODEL        PACKAGE GEO_MODEL       CONNECTED TO MODEL GEO_MODEL        PACKAGE WEL_0            ON UNIT   1017 AT TIME STEP      3, STRESS PERIOD      3
 UBDSV06 SAVING              RIV IN MODEL GEO_MODEL        PACKAGE GEO_MODEL       CONNECTED TO MODEL GEO_MODEL        PACKAGE RIV_0            ON UNIT   1017 AT TIME STEP      3, STRESS PERIOD      3
 UBDSV06 SAVING              GHB IN MODEL GEO_MODEL        PACKAGE GEO_MODEL       CONNECTED TO MODEL GEO_MODEL        PACKAGE GHB_0            ON UNIT   1017 AT TIME STEP      3, STRESS PERIOD      3
 UBDSV06 SAVING              RCH IN MODEL GEO_MODEL        PACKAGE GEO_MODEL       CONNECTED TO MODEL GEO_MODEL        PACKAGE RCH_0            ON UNIT   1017 AT TIME STEP      3, STRESS PERIOD      3
 UBDSV06 SAVING            EVTA  IN MODEL GEO_MODEL        PACKAGE GEO_MODEL       CONNECTED TO MODEL GEO_MODEL        PACKAGE EVTA_0           ON UNIT   1017 AT TIME STEP      3, STRESS PERIOD      3

 HEAD WILL BE SAVED ON UNIT 1018 AT END OF TIME STEP    3, STRESS PERIOD    3

end timestep


start timestep kper="3" kstp="4" mode="normal"

 UBDSV1 SAVING           STO-SS ON UNIT   1017 AT TIME STEP      4, STRESS PERIOD      3
 UBDSV1 SAVING     FLOW-JA-FACE ON UNIT   1017 AT TIME STEP      4, STRESS PERIOD      3
 UBDSV06 SAVING       DATA-SPDIS IN MODEL GEO_MODEL        PACKAGE NPF             CONNECTED TO MODEL GEO_MODEL        PACKAGE NPF              ON UNIT   1017 AT TIME STEP      4, STRESS PERIOD      3
 UBDSV06 SAVING              WEL IN MODEL GEO_MODEL        PACKAGE GEO_MODEL       CONNECTED TO MODEL GEO_MODEL        PACKAGE WEL_0            ON UNIT   1017 AT TIME STEP      4, STRESS PERIOD      3
 UBDSV06 SAVING              RIV IN MODEL GEO_MODEL        PACKAGE GEO_MODEL       CONNECTED TO MODEL GEO_MODEL        PACKAGE RIV_0            ON UNIT   1017 AT TIME STEP      4, STRESS PERIOD      3
 UBDSV06 SAVING              GHB IN MODEL GEO_MODEL        PACKAGE GEO_MODEL       CONNECTED TO MODEL GEO_MODEL        PACKAGE GHB_0            ON UNIT   1017 AT TIME STEP      4, STRESS PERIOD      3
 UBDSV06 SAVING              RCH IN MODEL GEO_MODEL        PACKAGE GEO_MODEL       CONNECTED TO MODEL GEO_MODEL        PACKAGE RCH_0            ON UNIT   1017 AT TIME STEP      4, STRESS PERIOD      3
 UBDSV06 SAVING            EVTA  IN MODEL GEO_MODEL        PACKAGE GEO_MODEL       CONNECTED TO MODEL GEO_MODEL        PACKAGE EVTA_0           ON UNIT   1017 AT TIME STEP      4, STRESS PERIOD      3

 HEAD WILL BE SAVED ON UNIT 1018 AT END OF TIME STEP    4, STRESS PERIOD    3


  VOLUME BUDGET FOR ENTIRE MODEL AT END OF TIME STEP    4, STRESS PERIOD   3
  ---------------------------------------------------------------------------------------------------

     CUMULATIVE VOLUME      L**3       RATES FOR THIS TIME STEP      L**3/T          PACKAGE NAME    
     ------------------                 ------------------------                     ----------------

           IN:                                      IN:
           ---                                      ---
              STO-SS =       97681.6274                STO-SS =       4.9415E-08     STORAGE                          
                 WEL =           0.0000                   WEL =           0.0000     WEL_0                            
                 RIV =    25339945.2006                   RIV =           0.7351     RIV_0                            
                 GHB =    86927580.7616                   GHB =           2.5153     GHB_0                            
                 RCH =     1073923.8524                   RCH =       3.1074E-02     RCH_0                            
                EVTA =           0.0000                  EVTA =           0.0000     EVTA_0                           

            TOTAL IN =   113439131.4420              TOTAL IN =           3.2815

          OUT:                                     OUT:
          ----                                     ----
              STO-SS =        6187.0919                STO-SS =       3.5749E-08     STORAGE                          
                 WEL =    15552000.0000                   WEL =           0.4500     WEL_0                            
                 RIV =    10083877.3287                   RIV =           0.2908     RIV_0                            
                 GHB =    86548213.8934                   GHB =           2.5043     GHB_0                            
                 RCH =           0.0000                   RCH =           0.0000     RCH_0                            
                EVTA =     1262425.5207                  EVTA =       3.6425E-02     EVTA_0                           

           TOTAL OUT =   113452703.8347             TOTAL OUT =           3.2815

            IN - OUT =      -13572.3927              IN - OUT =      -4.0954E-05

 PERCENT DISCREPANCY =          -0.01     PERCENT DISCREPANCY =          -0.00




         TIME SUMMARY AT END OF TIME STEP    4 IN STRESS PERIOD    3
                    SECONDS     MINUTES      HOURS       DAYS        YEARS
                    -----------------------------------------------------------
   TIME STEP LENGTH 4.32000E+06  72000.      1200.0      50.000     0.13689    
 STRESS PERIOD TIME 1.72800E+07 2.88000E+05  4800.0      200.00     0.54757    
         TOTAL TIME 3.45600E+07 5.76000E+05  9600.0      400.00      1.0951    


end timestep


start timestep kper="4" kstp="1" mode="normal"


 OUTPUT CONTROL FOR STRESS PERIOD 4 IS REPEATED USING SETTINGS FROM A PREVIOUS STRESS PERIOD.


 STRESS PERIOD 4 IS TRANSIENT


 REUSING WELS FROM LAST STRESS PERIOD

 REUSING RIVS FROM LAST STRESS PERIOD

 REUSING GHBS FROM LAST STRESS PERIOD

 REUSING RCHS FROM LAST STRESS PERIOD

 REUSING EVTS FROM LAST STRESS PERIOD
 UBDSV1 SAVING           STO-SS ON UNIT   1017 AT TIME STEP      1, STRESS PERIOD      4
 UBDSV1 SAVING     FLOW-JA-FACE ON UNIT   1017 AT TIME STEP      1, STRESS PERIOD      4
 UBDSV06 SAVING       DATA-SPDIS IN MODEL GEO_MODEL        PACKAGE NPF             CONNECTED TO MODEL GEO_MODEL        PACKAGE NPF              ON UNIT   1017 AT TIME STEP      1, STRESS PERIOD      4
 UBDSV06 SAVING              WEL IN MODEL GEO_MODEL        PACKAGE GEO_MODEL       CONNECTED TO MODEL GEO_MODEL        PACKAGE WEL_0            ON UNIT   1017 AT TIME STEP      1, STRESS PERIOD      4
 UBDSV06 SAVING              RIV IN MODEL GEO_MODEL        PACKAGE GEO_MODEL       CONNECTED TO MODEL GEO_MODEL        PACKAGE RIV_0            ON UNIT   1017 AT TIME STEP      1, STRESS PERIOD      4
 UBDSV06 SAVING              GHB IN MODEL GEO_MODEL        PACKAGE GEO_MODEL       CONNECTED TO MODEL GEO_MODEL        PACKAGE GHB_0            ON UNIT   1017 AT TIME STEP      1, STRESS PERIOD      4
 UBDSV06 SAVING              RCH IN MODEL GEO_MODEL        PACKAGE GEO_MODEL       CONNECTED TO MODEL GEO_MODEL        PACKAGE RCH_0            ON UNIT   1017 AT TIME STEP      1, STRESS PERIOD      4
 UBDSV06 SAVING            EVTA  IN MODEL GEO_MODEL        PACKAGE GEO_MODEL       CONNECTED TO MODEL GEO_MODEL        PACKAGE EVTA_0           ON UNIT   1017 AT TIME STEP      1, STRESS PERIOD      4

 HEAD WILL BE SAVED ON UNIT 1018 AT END OF TIME STEP    1, STRESS PERIOD    4

end timestep


start timestep kper="4" kstp="2" mode="normal"

 UBDSV1 SAVING           STO-SS ON UNIT   1017 AT TIME STEP      2, STRESS PERIOD      4
 UBDSV1 SAVING     FLOW-JA-FACE ON UNIT   1017 AT TIME STEP      2, STRESS PERIOD      4
 UBDSV06 SAVING       DATA-SPDIS IN MODEL GEO_MODEL        PACKAGE NPF             CONNECTED TO MODEL GEO_MODEL        PACKAGE NPF              ON UNIT   1017 AT TIME STEP      2, STRESS PERIOD      4
 UBDSV06 SAVING              WEL IN MODEL GEO_MODEL        PACKAGE GEO_MODEL       CONNECTED TO MODEL GEO_MODEL        PACKAGE WEL_0            ON UNIT   1017 AT TIME STEP      2, STRESS PERIOD      4
 UBDSV06 SAVING              RIV IN MODEL GEO_MODEL        PACKAGE GEO_MODEL       CONNECTED TO MODEL GEO_MODEL        PACKAGE RIV_0            ON UNIT   1017 AT TIME STEP      2, STRESS PERIOD      4
 UBDSV06 SAVING              GHB IN MODEL GEO_MODEL        PACKAGE GEO_MODEL       CONNECTED TO MODEL GEO_MODEL        PACKAGE GHB_0            ON UNIT   1017 AT TIME STEP      2, STRESS PERIOD      4
 UBDSV06 SAVING              RCH IN MODEL GEO_MODEL        PACKAGE GEO_MODEL       CONNECTED TO MODEL GEO_MODEL        PACKAGE RCH_0            ON UNIT   1017 AT TIME STEP      2, STRESS PERIOD      4
 UBDSV06 SAVING            EVTA  IN MODEL GEO_MODEL        PACKAGE GEO_MODEL       CONNECTED TO MODEL GEO_MODEL        PACKAGE EVTA_0           ON UNIT   1017 AT TIME STEP      2, STRESS PERIOD      4

 HEAD WILL BE SAVED ON UNIT 1018 AT END OF TIME STEP    2, STRESS PERIOD    4

end timestep


start timestep kper="4" kstp="3" mode="normal"

 UBDSV1 SAVING           STO-SS ON UNIT   1017 AT TIME STEP      3, STRESS PERIOD      4
 UBDSV1 SAVING     FLOW-JA-FACE ON UNIT   1017 AT TIME STEP      3, STRESS PERIOD      4
 UBDSV06 SAVING       DATA-SPDIS IN MODEL GEO_MODEL        PACKAGE NPF             CONNECTED TO MODEL GEO_MODEL        PACKAGE NPF              ON UNIT   1017 AT TIME STEP      3, STRESS PERIOD      4
 UBDSV06 SAVING              WEL IN MODEL GEO_MODEL        PACKAGE GEO_MODEL       CONNECTED TO MODEL GEO_MODEL        PACKAGE WEL_0            ON UNIT   1017 AT TIME STEP      3, STRESS PERIOD      4
 UBDSV06 SAVING              RIV IN MODEL GEO_MODEL        PACKAGE GEO_MODEL       CONNECTED TO MODEL GEO_MODEL        PACKAGE RIV_0            ON UNIT   1017 AT TIME STEP      3, STRESS PERIOD      4
 UBDSV06 SAVING              GHB IN MODEL GEO_MODEL        PACKAGE GEO_MODEL       CONNECTED TO MODEL GEO_MODEL        PACKAGE GHB_0            ON UNIT   1017 AT TIME STEP      3, STRESS PERIOD      4
 UBDSV06 SAVING              RCH IN MODEL GEO_MODEL        PACKAGE GEO_MODEL       CONNECTED TO MODEL GEO_MODEL        PACKAGE RCH_0            ON UNIT   1017 AT TIME STEP      3, STRESS PERIOD      4
 UBDSV06 SAVING            EVTA  IN MODEL GEO_MODEL        PACKAGE GEO_MODEL       CONNECTED TO MODEL GEO_MODEL        PACKAGE EVTA_0           ON UNIT   1017 AT TIME STEP      3, STRESS PERIOD      4

 HEAD WILL BE SAVED ON UNIT 1018 AT END OF TIME STEP    3, STRESS PERIOD    4

end timestep


start timestep kper="4" kstp="4" mode="normal"

 UBDSV1 SAVING           STO-SS ON UNIT   1017 AT TIME STEP      4, STRESS PERIOD      4
 UBDSV1 SAVING     FLOW-JA-FACE ON UNIT   1017 AT TIME STEP      4, STRESS PERIOD      4
 UBDSV06 SAVING       DATA-SPDIS IN MODEL GEO_MODEL        PACKAGE NPF             CONNECTED TO MODEL GEO_MODEL        PACKAGE NPF              ON UNIT   1017 AT TIME STEP      4, STRESS PERIOD      4
 UBDSV06 SAVING              WEL IN MODEL GEO_MODEL        PACKAGE GEO_MODEL       CONNECTED TO MODEL GEO_MODEL        PACKAGE WEL_0            ON UNIT   1017 AT TIME STEP      4, STRESS PERIOD      4
 UBDSV06 SAVING              RIV IN MODEL GEO_MODEL        PACKAGE GEO_MODEL       CONNECTED TO MODEL GEO_MODEL        PACKAGE RIV_0            ON UNIT   1017 AT TIME STEP      4, STRESS PERIOD      4
 UBDSV06 SAVING              GHB IN MODEL GEO_MODEL        PACKAGE GEO_MODEL       CONNECTED TO MODEL GEO_MODEL        PACKAGE GHB_0            ON UNIT   1017 AT TIME STEP      4, STRESS PERIOD      4
 UBDSV06 SAVING              RCH IN MODEL GEO_MODEL        PACKAGE GEO_MODEL       CONNECTED TO MODEL GEO_MODEL        PACKAGE RCH_0            ON UNIT   1017 AT TIME STEP      4, STRESS PERIOD      4
 UBDSV06 SAVING            EVTA  IN MODEL GEO_MODEL        PACKAGE GEO_MODEL       CONNECTED TO MODEL GEO_MODEL        PACKAGE EVTA_0           ON UNIT   1017 AT TIME STEP      4, STRESS PERIOD      4

 HEAD WILL BE SAVED ON UNIT 1018 AT END OF TIME STEP    4, STRESS PERIOD    4


  VOLUME BUDGET FOR ENTIRE MODEL AT END OF TIME STEP    4, STRESS PERIOD   4
  ---------------------------------------------------------------------------------------------------

     CUMULATIVE VOLUME      L**3       RATES FOR THIS TIME STEP      L**3/T          PACKAGE NAME    
     ------------------                 ------------------------                     ----------------

           IN:                                      IN:
           ---                                      ---
              STO-SS =       97682.0237                STO-SS =       4.1521E-08     STORAGE                          
                 WEL =           0.0000                   WEL =           0.0000     WEL_0                            
                 RIV =    38042896.1462                   RIV =           0.7351     RIV_0                            
                 GHB =   130391583.3965                   GHB =           2.5153     GHB_0                            
                 RCH =     1610885.7631                   RCH =       3.1074E-02     RCH_0                            
                EVTA =           0.0000                  EVTA =           0.0000     EVTA_0                           

            TOTAL IN =   170143047.3294              TOTAL IN =           3.2815

          OUT:                                     OUT:
          ----                                     ----
              STO-SS =        6187.2815                STO-SS =       1.3368E-08     STORAGE                          
                 WEL =    23328000.0000                   WEL =           0.4500     WEL_0                            
                 RIV =    15109183.0000                   RIV =           0.2908     RIV_0                            
                 GHB =   129822056.8043                   GHB =           2.5043     GHB_0                            
                 RCH =           0.0000                   RCH =           0.0000     RCH_0                            
                EVTA =     1891852.7669                  EVTA =       3.6425E-02     EVTA_0                           

           TOTAL OUT =   170157279.8526             TOTAL OUT =           3.2815

            IN - OUT =      -14232.5232              IN - OUT =      -3.5412E-05

 PERCENT DISCREPANCY =          -0.01     PERCENT DISCREPANCY =          -0.00




         TIME SUMMARY AT END OF TIME STEP    4 IN STRESS PERIOD    4
                    SECONDS     MINUTES      HOURS       DAYS        YEARS
                    -----------------------------------------------------------
   TIME STEP LENGTH 4.32000E+06  72000.      1200.0      50.000     0.13689    
 STRESS PERIOD TIME 1.72800E+07 2.88000E+05  4800.0      200.00     0.54757    
         TOTAL TIME 5.18400E+07 8.64000E+05  14400.      600.00      1.6427    


end timestep


start timestep kper="5" kstp="1" mode="normal"


 OUTPUT CONTROL FOR STRESS PERIOD 5 IS REPEATED USING SETTINGS FROM A PREVIOUS STRESS PERIOD.


 STRESS PERIOD 5 IS TRANSIENT


 REUSING WELS FROM LAST STRESS PERIOD

 REUSING RIVS FROM LAST STRESS PERIOD

 REUSING GHBS FROM LAST STRESS PERIOD

 REUSING RCHS FROM LAST STRESS PERIOD

 REUSING EVTS FROM LAST STRESS PERIOD
 UBDSV1 SAVING           STO-SS ON UNIT   1017 AT TIME STEP      1, STRESS PERIOD      5
 UBDSV1 SAVING     FLOW-JA-FACE ON UNIT   1017 AT TIME STEP      1, STRESS PERIOD      5
 UBDSV06 SAVING       DATA-SPDIS IN MODEL GEO_MODEL        PACKAGE NPF             CONNECTED TO MODEL GEO_MODEL        PACKAGE NPF              ON UNIT   1017 AT TIME STEP      1, STRESS PERIOD      5
 UBDSV06 SAVING              WEL IN MODEL GEO_MODEL        PACKAGE GEO_MODEL       CONNECTED TO MODEL GEO_MODEL        PACKAGE WEL_0            ON UNIT   1017 AT TIME STEP      1, STRESS PERIOD      5
 UBDSV06 SAVING              RIV IN MODEL GEO_MODEL        PACKAGE GEO_MODEL       CONNECTED TO MODEL GEO_MODEL        PACKAGE RIV_0            ON UNIT   1017 AT TIME STEP      1, STRESS PERIOD      5
 UBDSV06 SAVING              GHB IN MODEL GEO_MODEL        PACKAGE GEO_MODEL       CONNECTED TO MODEL GEO_MODEL        PACKAGE GHB_0            ON UNIT   1017 AT TIME STEP      1, STRESS PERIOD      5
 UBDSV06 SAVING              RCH IN MODEL GEO_MODEL        PACKAGE GEO_MODEL       CONNECTED TO MODEL GEO_MODEL        PACKAGE RCH_0            ON UNIT   1017 AT TIME STEP      1, STRESS PERIOD      5
 UBDSV06 SAVING            EVTA  IN MODEL GEO_MODEL        PACKAGE GEO_MODEL       CONNECTED TO MODEL GEO_MODEL        PACKAGE EVTA_0           ON UNIT   1017 AT TIME STEP      1, STRESS PERIOD      5

 HEAD WILL BE SAVED ON UNIT 1018 AT END OF TIME STEP    1, STRESS PERIOD    5

end timestep


start timestep kper="5" kstp="2" mode="normal"

 UBDSV1 SAVING           STO-SS ON UNIT   1017 AT TIME STEP      2, STRESS PERIOD      5
 UBDSV1 SAVING     FLOW-JA-FACE ON UNIT   1017 AT TIME STEP      2, STRESS PERIOD      5
 UBDSV06 SAVING       DATA-SPDIS IN MODEL GEO_MODEL        PACKAGE NPF             CONNECTED TO MODEL GEO_MODEL        PACKAGE NPF              ON UNIT   1017 AT TIME STEP      2, STRESS PERIOD      5
 UBDSV06 SAVING              WEL IN MODEL GEO_MODEL        PACKAGE GEO_MODEL       CONNECTED TO MODEL GEO_MODEL        PACKAGE WEL_0            ON UNIT   1017 AT TIME STEP      2, STRESS PERIOD      5
 UBDSV06 SAVING              RIV IN MODEL GEO_MODEL        PACKAGE GEO_MODEL       CONNECTED TO MODEL GEO_MODEL        PACKAGE RIV_0            ON UNIT   1017 AT TIME STEP      2, STRESS PERIOD      5
 UBDSV06 SAVING              GHB IN MODEL GEO_MODEL        PACKAGE GEO_MODEL       CONNECTED TO MODEL GEO_MODEL        PACKAGE GHB_0            ON UNIT   1017 AT TIME STEP      2, STRESS PERIOD      5
 UBDSV06 SAVING              RCH IN MODEL GEO_MODEL        PACKAGE GEO_MODEL       CONNECTED TO MODEL GEO_MODEL        PACKAGE RCH_0            ON UNIT   1017 AT TIME STEP      2, STRESS PERIOD      5
 UBDSV06 SAVING            EVTA  IN MODEL GEO_MODEL        PACKAGE GEO_MODEL       CONNECTED TO MODEL GEO_MODEL        PACKAGE EVTA_0           ON UNIT   1017 AT TIME STEP      2, STRESS PERIOD      5

 HEAD WILL BE SAVED ON UNIT 1018 AT END OF TIME STEP    2, STRESS PERIOD    5

end timestep


start timestep kper="5" kstp="3" mode="normal"

 UBDSV1 SAVING           STO-SS ON UNIT   1017 AT TIME STEP      3, STRESS PERIOD      5
 UBDSV1 SAVING     FLOW-JA-FACE ON UNIT   1017 AT TIME STEP      3, STRESS PERIOD      5
 UBDSV06 SAVING       DATA-SPDIS IN MODEL GEO_MODEL        PACKAGE NPF             CONNECTED TO MODEL GEO_MODEL        PACKAGE NPF              ON UNIT   1017 AT TIME STEP      3, STRESS PERIOD      5
 UBDSV06 SAVING              WEL IN MODEL GEO_MODEL        PACKAGE GEO_MODEL       CONNECTED TO MODEL GEO_MODEL        PACKAGE WEL_0            ON UNIT   1017 AT TIME STEP      3, STRESS PERIOD      5
 UBDSV06 SAVING              RIV IN MODEL GEO_MODEL        PACKAGE GEO_MODEL       CONNECTED TO MODEL GEO_MODEL        PACKAGE RIV_0            ON UNIT   1017 AT TIME STEP      3, STRESS PERIOD      5
 UBDSV06 SAVING              GHB IN MODEL GEO_MODEL        PACKAGE GEO_MODEL       CONNECTED TO MODEL GEO_MODEL        PACKAGE GHB_0            ON UNIT   1017 AT TIME STEP      3, STRESS PERIOD      5
 UBDSV06 SAVING              RCH IN MODEL GEO_MODEL        PACKAGE GEO_MODEL       CONNECTED TO MODEL GEO_MODEL        PACKAGE RCH_0            ON UNIT   1017 AT TIME STEP      3, STRESS PERIOD      5
 UBDSV06 SAVING            EVTA  IN MODEL GEO_MODEL        PACKAGE GEO_MODEL       CONNECTED TO MODEL GEO_MODEL        PACKAGE EVTA_0           ON UNIT   1017 AT TIME STEP      3, STRESS PERIOD      5

 HEAD WILL BE SAVED ON UNIT 1018 AT END OF TIME STEP    3, STRESS PERIOD    5

end timestep


start timestep kper="5" kstp="4" mode="normal"

 UBDSV1 SAVING           STO-SS ON UNIT   1017 AT TIME STEP      4, STRESS PERIOD      5
 UBDSV1 SAVING     FLOW-JA-FACE ON UNIT   1017 AT TIME STEP      4, STRESS PERIOD      5
 UBDSV06 SAVING       DATA-SPDIS IN MODEL GEO_MODEL        PACKAGE NPF             CONNECTED TO MODEL GEO_MODEL        PACKAGE NPF              ON UNIT   1017 AT TIME STEP      4, STRESS PERIOD      5
 UBDSV06 SAVING              WEL IN MODEL GEO_MODEL        PACKAGE GEO_MODEL       CONNECTED TO MODEL GEO_MODEL        PACKAGE WEL_0            ON UNIT   1017 AT TIME STEP      4, STRESS PERIOD      5
 UBDSV06 SAVING              RIV IN MODEL GEO_MODEL        PACKAGE GEO_MODEL       CONNECTED TO MODEL GEO_MODEL        PACKAGE RIV_0            ON UNIT   1017 AT TIME STEP      4, STRESS PERIOD      5
 UBDSV06 SAVING              GHB IN MODEL GEO_MODEL        PACKAGE GEO_MODEL       CONNECTED TO MODEL GEO_MODEL        PACKAGE GHB_0            ON UNIT   1017 AT TIME STEP      4, STRESS PERIOD      5
 UBDSV06 SAVING              RCH IN MODEL GEO_MODEL        PACKAGE GEO_MODEL       CONNECTED TO MODEL GEO_MODEL        PACKAGE RCH_0            ON UNIT   1017 AT TIME STEP      4, STRESS PERIOD      5
 UBDSV06 SAVING            EVTA  IN MODEL GEO_MODEL        PACKAGE GEO_MODEL       CONNECTED TO MODEL GEO_MODEL        PACKAGE EVTA_0           ON UNIT   1017 AT TIME STEP      4, STRESS PERIOD      5

 HEAD WILL BE SAVED ON UNIT 1018 AT END OF TIME STEP    4, STRESS PERIOD    5


  VOLUME BUDGET FOR ENTIRE MODEL AT END OF TIME STEP    4, STRESS PERIOD   5
  ---------------------------------------------------------------------------------------------------

     CUMULATIVE VOLUME      L**3       RATES FOR THIS TIME STEP      L**3/T          PACKAGE NAME    
     ------------------                 ------------------------                     ----------------

           IN:                                      IN:
           ---                                      ---
              STO-SS =       97682.9040                STO-SS =       3.9567E-08     STORAGE                          
                 WEL =           0.0000                   WEL =           0.0000     WEL_0                            
                 RIV =    50745946.2690                   RIV =           0.7351     RIV_0                            
                 GHB =   173855586.2427                   GHB =           2.5153     GHB_0                            
                 RCH =     2147847.6738                   RCH =       3.1074E-02     RCH_0                            
                EVTA =           0.0000                  EVTA =           0.0000     EVTA_0                           

            TOTAL IN =   226847063.0895              TOTAL IN =           3.2815

          OUT:                                     OUT:
          ----                                     ----
              STO-SS =        6187.4160                STO-SS =       3.0052E-09     STORAGE                          
                 WEL =    31104000.0000                   WEL =           0.4500     WEL_0                            
                 RIV =    20134408.1455                   RIV =           0.2908     RIV_0                            
                 GHB =   173095899.4551                   GHB =           2.5043     GHB_0                            
                 RCH =           0.0000                   RCH =           0.0000     RCH_0                            
                EVTA =     2521268.6383                  EVTA =       3.6424E-02     EVTA_0                           

           TOTAL OUT =   226861763.6549             TOTAL OUT =           3.2815

            IN - OUT =      -14700.5655              IN - OUT =      -2.3129E-05

 PERCENT DISCREPANCY =          -0.01     PERCENT DISCREPANCY =          -0.00




         TIME SUMMARY AT END OF TIME STEP    4 IN STRESS PERIOD    5
                    SECONDS     MINUTES      HOURS       DAYS        YEARS
                    -----------------------------------------------------------
   TIME STEP LENGTH 4.32000E+06  72000.      1200.0      50.000     0.13689    
 STRESS PERIOD TIME 1.72800E+07 2.88000E+05  4800.0      200.00     0.54757    
         TOTAL TIME 6.91200E+07 1.15200E+06  19200.      800.00      2.1903    


end timestep


start timestep kper="6" kstp="1" mode="normal"


 OUTPUT CONTROL FOR STRESS PERIOD 6 IS REPEATED USING SETTINGS FROM A PREVIOUS STRESS PERIOD.


 STRESS PERIOD 6 IS TRANSIENT


 REUSING WELS FROM LAST STRESS PERIOD

 REUSING RIVS FROM LAST STRESS PERIOD

 REUSING GHBS FROM LAST STRESS PERIOD

 REUSING RCHS FROM LAST STRESS PERIOD

 REUSING EVTS FROM LAST STRESS PERIOD
 UBDSV1 SAVING           STO-SS ON UNIT   1017 AT TIME STEP      1, STRESS PERIOD      6
 UBDSV1 SAVING     FLOW-JA-FACE ON UNIT   1017 AT TIME STEP      1, STRESS PERIOD      6
 UBDSV06 SAVING       DATA-SPDIS IN MODEL GEO_MODEL        PACKAGE NPF             CONNECTED TO MODEL GEO_MODEL        PACKAGE NPF              ON UNIT   1017 AT TIME STEP      1, STRESS PERIOD      6
 UBDSV06 SAVING              WEL IN MODEL GEO_MODEL        PACKAGE GEO_MODEL       CONNECTED TO MODEL GEO_MODEL        PACKAGE WEL_0            ON UNIT   1017 AT TIME STEP      1, STRESS PERIOD      6
 UBDSV06 SAVING              RIV IN MODEL GEO_MODEL        PACKAGE GEO_MODEL       CONNECTED TO MODEL GEO_MODEL        PACKAGE RIV_0            ON UNIT   1017 AT TIME STEP      1, STRESS PERIOD      6
 UBDSV06 SAVING              GHB IN MODEL GEO_MODEL        PACKAGE GEO_MODEL       CONNECTED TO MODEL GEO_MODEL        PACKAGE GHB_0            ON UNIT   1017 AT TIME STEP      1, STRESS PERIOD      6
 UBDSV06 SAVING              RCH IN MODEL GEO_MODEL        PACKAGE GEO_MODEL       CONNECTED TO MODEL GEO_MODEL        PACKAGE RCH_0            ON UNIT   1017 AT TIME STEP      1, STRESS PERIOD      6
 UBDSV06 SAVING            EVTA  IN MODEL GEO_MODEL        PACKAGE GEO_MODEL       CONNECTED TO MODEL GEO_MODEL        PACKAGE EVTA_0           ON UNIT   1017 AT TIME STEP      1, STRESS PERIOD      6

 HEAD WILL BE SAVED ON UNIT 1018 AT END OF TIME STEP    1, STRESS PERIOD    6

end timestep


start timestep kper="6" kstp="2" mode="normal"

 UBDSV1 SAVING           STO-SS ON UNIT   1017 AT TIME STEP      2, STRESS PERIOD      6
 UBDSV1 SAVING     FLOW-JA-FACE ON UNIT   1017 AT TIME STEP      2, STRESS PERIOD      6
 UBDSV06 SAVING       DATA-SPDIS IN MODEL GEO_MODEL        PACKAGE NPF             CONNECTED TO MODEL GEO_MODEL        PACKAGE NPF              ON UNIT   1017 AT TIME STEP      2, STRESS PERIOD      6
 UBDSV06 SAVING              WEL IN MODEL GEO_MODEL        PACKAGE GEO_MODEL       CONNECTED TO MODEL GEO_MODEL        PACKAGE WEL_0            ON UNIT   1017 AT TIME STEP      2, STRESS PERIOD      6
 UBDSV06 SAVING              RIV IN MODEL GEO_MODEL        PACKAGE GEO_MODEL       CONNECTED TO MODEL GEO_MODEL        PACKAGE RIV_0            ON UNIT   1017 AT TIME STEP      2, STRESS PERIOD      6
 UBDSV06 SAVING              GHB IN MODEL GEO_MODEL        PACKAGE GEO_MODEL       CONNECTED TO MODEL GEO_MODEL        PACKAGE GHB_0            ON UNIT   1017 AT TIME STEP      2, STRESS PERIOD      6
 UBDSV06 SAVING              RCH IN MODEL GEO_MODEL        PACKAGE GEO_MODEL       CONNECTED TO MODEL GEO_MODEL        PACKAGE RCH_0            ON UNIT   1017 AT TIME STEP      2, STRESS PERIOD      6
 UBDSV06 SAVING            EVTA  IN MODEL GEO_MODEL        PACKAGE GEO_MODEL       CONNECTED TO MODEL GEO_MODEL        PACKAGE EVTA_0           ON UNIT   1017 AT TIME STEP      2, STRESS PERIOD      6

 HEAD WILL BE SAVED ON UNIT 1018 AT END OF TIME STEP    2, STRESS PERIOD    6

end timestep


start timestep kper="6" kstp="3" mode="normal"

 UBDSV1 SAVING           STO-SS ON UNIT   1017 AT TIME STEP      3, STRESS PERIOD      6
 UBDSV1 SAVING     FLOW-JA-FACE ON UNIT   1017 AT TIME STEP      3, STRESS PERIOD      6
 UBDSV06 SAVING       DATA-SPDIS IN MODEL GEO_MODEL        PACKAGE NPF             CONNECTED TO MODEL GEO_MODEL        PACKAGE NPF              ON UNIT   1017 AT TIME STEP      3, STRESS PERIOD      6
 UBDSV06 SAVING              WEL IN MODEL GEO_MODEL        PACKAGE GEO_MODEL       CONNECTED TO MODEL GEO_MODEL        PACKAGE WEL_0            ON UNIT   1017 AT TIME STEP      3, STRESS PERIOD      6
 UBDSV06 SAVING              RIV IN MODEL GEO_MODEL        PACKAGE GEO_MODEL       CONNECTED TO MODEL GEO_MODEL        PACKAGE RIV_0            ON UNIT   1017 AT TIME STEP      3, STRESS PERIOD      6
 UBDSV06 SAVING              GHB IN MODEL GEO_MODEL        PACKAGE GEO_MODEL       CONNECTED TO MODEL GEO_MODEL        PACKAGE GHB_0            ON UNIT   1017 AT TIME STEP      3, STRESS PERIOD      6
 UBDSV06 SAVING              RCH IN MODEL GEO_MODEL        PACKAGE GEO_MODEL       CONNECTED TO MODEL GEO_MODEL        PACKAGE RCH_0            ON UNIT   1017 AT TIME STEP      3, STRESS PERIOD      6
 UBDSV06 SAVING            EVTA  IN MODEL GEO_MODEL        PACKAGE GEO_MODEL       CONNECTED TO MODEL GEO_MODEL        PACKAGE EVTA_0           ON UNIT   1017 AT TIME STEP      3, STRESS PERIOD      6

 HEAD WILL BE SAVED ON UNIT 1018 AT END OF TIME STEP    3, STRESS PERIOD    6

end timestep


start timestep kper="6" kstp="4" mode="normal"

 UBDSV1 SAVING           STO-SS ON UNIT   1017 AT TIME STEP      4, STRESS PERIOD      6
 UBDSV1 SAVING     FLOW-JA-FACE ON UNIT   1017 AT TIME STEP      4, STRESS PERIOD      6
 UBDSV06 SAVING       DATA-SPDIS IN MODEL GEO_MODEL        PACKAGE NPF             CONNECTED TO MODEL GEO_MODEL        PACKAGE NPF              ON UNIT   1017 AT TIME STEP      4, STRESS PERIOD      6
 UBDSV06 SAVING              WEL IN MODEL GEO_MODEL        PACKAGE GEO_MODEL       CONNECTED TO MODEL GEO_MODEL        PACKAGE WEL_0            ON UNIT   1017 AT TIME STEP      4, STRESS PERIOD      6
 UBDSV06 SAVING              RIV IN MODEL GEO_MODEL        PACKAGE GEO_MODEL       CONNECTED TO MODEL GEO_MODEL        PACKAGE RIV_0            ON UNIT   1017 AT TIME STEP      4, STRESS PERIOD      6
 UBDSV06 SAVING              GHB IN MODEL GEO_MODEL        PACKAGE GEO_MODEL       CONNECTED TO MODEL GEO_MODEL        PACKAGE GHB_0            ON UNIT   1017 AT TIME STEP      4, STRESS PERIOD      6
 UBDSV06 SAVING              RCH IN MODEL GEO_MODEL        PACKAGE GEO_MODEL       CONNECTED TO MODEL GEO_MODEL        PACKAGE RCH_0            ON UNIT   1017 AT TIME STEP      4, STRESS PERIOD      6
 UBDSV06 SAVING            EVTA  IN MODEL GEO_MODEL        PACKAGE GEO_MODEL       CONNECTED TO MODEL GEO_MODEL        PACKAGE EVTA_0           ON UNIT   1017 AT TIME STEP      4, STRESS PERIOD      6

 HEAD WILL BE SAVED ON UNIT 1018 AT END OF TIME STEP    4, STRESS PERIOD    6


  VOLUME BUDGET FOR ENTIRE MODEL AT END OF TIME STEP    4, STRESS PERIOD   6
  ---------------------------------------------------------------------------------------------------

     CUMULATIVE VOLUME      L**3       RATES FOR THIS TIME STEP      L**3/T          PACKAGE NAME    
     ------------------                 ------------------------                     ----------------

           IN:                                      IN:
           ---                                      ---
              STO-SS =       97683.1315                STO-SS =       1.4064E-08     STORAGE                          
                 WEL =           0.0000                   WEL =           0.0000     WEL_0                            
                 RIV =    63449039.8461                   RIV =           0.7351     RIV_0                            
                 GHB =   217319589.9007                   GHB =           2.5153     GHB_0                            
                 RCH =     2684809.5844                   RCH =       3.1074E-02     RCH_0                            
                EVTA =           0.0000                  EVTA =           0.0000     EVTA_0                           

            TOTAL IN =   283551122.4627              TOTAL IN =           3.2815

          OUT:                                     OUT:
          ----                                     ----
              STO-SS =        6187.4218                STO-SS =       7.0662E-13     STORAGE                          
                 WEL =    38880000.0000                   WEL =           0.4500     WEL_0                            
                 RIV =    25159585.7034                   RIV =           0.2908     RIV_0                            
                 GHB =   216369741.1069                   GHB =           2.5043     GHB_0                            
                 RCH =           0.0000                   RCH =           0.0000     RCH_0                            
                EVTA =     3150679.6478                  EVTA =       3.6424E-02     EVTA_0                           

           TOTAL OUT =   283566193.8800             TOTAL OUT =           3.2815

            IN - OUT =      -15071.4173              IN - OUT =      -2.0323E-05

 PERCENT DISCREPANCY =          -0.01     PERCENT DISCREPANCY =          -0.00




         TIME SUMMARY AT END OF TIME STEP    4 IN STRESS PERIOD    6
                    SECONDS     MINUTES      HOURS       DAYS        YEARS
                    -----------------------------------------------------------
   TIME STEP LENGTH 4.32000E+06  72000.      1200.0      50.000     0.13689    
 STRESS PERIOD TIME 1.72800E+07 2.88000E+05  4800.0      200.00     0.54757    
         TOTAL TIME 8.64000E+07 1.44000E+06  24000.      1000.0      2.7379    


end timestep


start timestep kper="7" kstp="1" mode="normal"


 OUTPUT CONTROL FOR STRESS PERIOD 7 IS REPEATED USING SETTINGS FROM A PREVIOUS STRESS PERIOD.


 STRESS PERIOD 7 IS TRANSIENT


 REUSING WELS FROM LAST STRESS PERIOD

 REUSING RIVS FROM LAST STRESS PERIOD

 REUSING GHBS FROM LAST STRESS PERIOD

 REUSING RCHS FROM LAST STRESS PERIOD

 REUSING EVTS FROM LAST STRESS PERIOD
 UBDSV1 SAVING           STO-SS ON UNIT   1017 AT TIME STEP      1, STRESS PERIOD      7
 UBDSV1 SAVING     FLOW-JA-FACE ON UNIT   1017 AT TIME STEP      1, STRESS PERIOD      7
 UBDSV06 SAVING       DATA-SPDIS IN MODEL GEO_MODEL        PACKAGE NPF             CONNECTED TO MODEL GEO_MODEL        PACKAGE NPF              ON UNIT   1017 AT TIME STEP      1, STRESS PERIOD      7
 UBDSV06 SAVING              WEL IN MODEL GEO_MODEL        PACKAGE GEO_MODEL       CONNECTED TO MODEL GEO_MODEL        PACKAGE WEL_0            ON UNIT   1017 AT TIME STEP      1, STRESS PERIOD      7
 UBDSV06 SAVING              RIV IN MODEL GEO_MODEL        PACKAGE GEO_MODEL       CONNECTED TO MODEL GEO_MODEL        PACKAGE RIV_0            ON UNIT   1017 AT TIME STEP      1, STRESS PERIOD      7
 UBDSV06 SAVING              GHB IN MODEL GEO_MODEL        PACKAGE GEO_MODEL       CONNECTED TO MODEL GEO_MODEL        PACKAGE GHB_0            ON UNIT   1017 AT TIME STEP      1, STRESS PERIOD      7
 UBDSV06 SAVING              RCH IN MODEL GEO_MODEL        PACKAGE GEO_MODEL       CONNECTED TO MODEL GEO_MODEL        PACKAGE RCH_0            ON UNIT   1017 AT TIME STEP      1, STRESS PERIOD      7
 UBDSV06 SAVING            EVTA  IN MODEL GEO_MODEL        PACKAGE GEO_MODEL       CONNECTED TO MODEL GEO_MODEL        PACKAGE EVTA_0           ON UNIT   1017 AT TIME STEP      1, STRESS PERIOD      7

 HEAD WILL BE SAVED ON UNIT 1018 AT END OF TIME STEP    1, STRESS PERIOD    7

end timestep


start timestep kper="7" kstp="2" mode="normal"

 UBDSV1 SAVING           STO-SS ON UNIT   1017 AT TIME STEP      2, STRESS PERIOD      7
 UBDSV1 SAVING     FLOW-JA-FACE ON UNIT   1017 AT TIME STEP      2, STRESS PERIOD      7
 UBDSV06 SAVING       DATA-SPDIS IN MODEL GEO_MODEL        PACKAGE NPF             CONNECTED TO MODEL GEO_MODEL        PACKAGE NPF              ON UNIT   1017 AT TIME STEP      2, STRESS PERIOD      7
 UBDSV06 SAVING              WEL IN MODEL GEO_MODEL        PACKAGE GEO_MODEL       CONNECTED TO MODEL GEO_MODEL        PACKAGE WEL_0            ON UNIT   1017 AT TIME STEP      2, STRESS PERIOD      7
 UBDSV06 SAVING              RIV IN MODEL GEO_MODEL        PACKAGE GEO_MODEL       CONNECTED TO MODEL GEO_MODEL        PACKAGE RIV_0            ON UNIT   1017 AT TIME STEP      2, STRESS PERIOD      7
 UBDSV06 SAVING              GHB IN MODEL GEO_MODEL        PACKAGE GEO_MODEL       CONNECTED TO MODEL GEO_MODEL        PACKAGE GHB_0            ON UNIT   1017 AT TIME STEP      2, STRESS PERIOD      7
 UBDSV06 SAVING              RCH IN MODEL GEO_MODEL        PACKAGE GEO_MODEL       CONNECTED TO MODEL GEO_MODEL        PACKAGE RCH_0            ON UNIT   1017 AT TIME STEP      2, STRESS PERIOD      7
 UBDSV06 SAVING            EVTA  IN MODEL GEO_MODEL        PACKAGE GEO_MODEL       CONNECTED TO MODEL GEO_MODEL        PACKAGE EVTA_0           ON UNIT   1017 AT TIME STEP      2, STRESS PERIOD      7

 HEAD WILL BE SAVED ON UNIT 1018 AT END OF TIME STEP    2, STRESS PERIOD    7

end timestep


start timestep kper="7" kstp="3" mode="normal"

 UBDSV1 SAVING           STO-SS ON UNIT   1017 AT TIME STEP      3, STRESS PERIOD      7
 UBDSV1 SAVING     FLOW-JA-FACE ON UNIT   1017 AT TIME STEP      3, STRESS PERIOD      7
 UBDSV06 SAVING       DATA-SPDIS IN MODEL GEO_MODEL        PACKAGE NPF             CONNECTED TO MODEL GEO_MODEL        PACKAGE NPF              ON UNIT   1017 AT TIME STEP      3, STRESS PERIOD      7
 UBDSV06 SAVING              WEL IN MODEL GEO_MODEL        PACKAGE GEO_MODEL       CONNECTED TO MODEL GEO_MODEL        PACKAGE WEL_0            ON UNIT   1017 AT TIME STEP      3, STRESS PERIOD      7
 UBDSV06 SAVING              RIV IN MODEL GEO_MODEL        PACKAGE GEO_MODEL       CONNECTED TO MODEL GEO_MODEL        PACKAGE RIV_0            ON UNIT   1017 AT TIME STEP      3, STRESS PERIOD      7
 UBDSV06 SAVING              GHB IN MODEL GEO_MODEL        PACKAGE GEO_MODEL       CONNECTED TO MODEL GEO_MODEL        PACKAGE GHB_0            ON UNIT   1017 AT TIME STEP      3, STRESS PERIOD      7
 UBDSV06 SAVING              RCH IN MODEL GEO_MODEL        PACKAGE GEO_MODEL       CONNECTED TO MODEL GEO_MODEL        PACKAGE RCH_0            ON UNIT   1017 AT TIME STEP      3, STRESS PERIOD      7
 UBDSV06 SAVING            EVTA  IN MODEL GEO_MODEL        PACKAGE GEO_MODEL       CONNECTED TO MODEL GEO_MODEL        PACKAGE EVTA_0           ON UNIT   1017 AT TIME STEP      3, STRESS PERIOD      7

 HEAD WILL BE SAVED ON UNIT 1018 AT END OF TIME STEP    3, STRESS PERIOD    7

end timestep


start timestep kper="7" kstp="4" mode="normal"

 UBDSV1 SAVING           STO-SS ON UNIT   1017 AT TIME STEP      4, STRESS PERIOD      7
 UBDSV1 SAVING     FLOW-JA-FACE ON UNIT   1017 AT TIME STEP      4, STRESS PERIOD      7
 UBDSV06 SAVING       DATA-SPDIS IN MODEL GEO_MODEL        PACKAGE NPF             CONNECTED TO MODEL GEO_MODEL        PACKAGE NPF              ON UNIT   1017 AT TIME STEP      4, STRESS PERIOD      7
 UBDSV06 SAVING              WEL IN MODEL GEO_MODEL        PACKAGE GEO_MODEL       CONNECTED TO MODEL GEO_MODEL        PACKAGE WEL_0            ON UNIT   1017 AT TIME STEP      4, STRESS PERIOD      7
 UBDSV06 SAVING              RIV IN MODEL GEO_MODEL        PACKAGE GEO_MODEL       CONNECTED TO MODEL GEO_MODEL        PACKAGE RIV_0            ON UNIT   1017 AT TIME STEP      4, STRESS PERIOD      7
 UBDSV06 SAVING              GHB IN MODEL GEO_MODEL        PACKAGE GEO_MODEL       CONNECTED TO MODEL GEO_MODEL        PACKAGE GHB_0            ON UNIT   1017 AT TIME STEP      4, STRESS PERIOD      7
 UBDSV06 SAVING              RCH IN MODEL GEO_MODEL        PACKAGE GEO_MODEL       CONNECTED TO MODEL GEO_MODEL        PACKAGE RCH_0            ON UNIT   1017 AT TIME STEP      4, STRESS PERIOD      7
 UBDSV06 SAVING            EVTA  IN MODEL GEO_MODEL        PACKAGE GEO_MODEL       CONNECTED TO MODEL GEO_MODEL        PACKAGE EVTA_0           ON UNIT   1017 AT TIME STEP      4, STRESS PERIOD      7

 HEAD WILL BE SAVED ON UNIT 1018 AT END OF TIME STEP    4, STRESS PERIOD    7


  VOLUME BUDGET FOR ENTIRE MODEL AT END OF TIME STEP    4, STRESS PERIOD   7
  ---------------------------------------------------------------------------------------------------

     CUMULATIVE VOLUME      L**3       RATES FOR THIS TIME STEP      L**3/T          PACKAGE NAME    
     ------------------                 ------------------------                     ----------------

           IN:                                      IN:
           ---                                      ---
              STO-SS =       97683.2409                STO-SS =       4.8478E-09     STORAGE                          
                 WEL =           0.0000                   WEL =           0.0000     WEL_0                            
                 RIV =    76152150.6482                   RIV =           0.7351     RIV_0                            
                 GHB =   260783593.8708                   GHB =           2.5153     GHB_0                            
                 RCH =     3221771.4951                   RCH =       3.1074E-02     RCH_0                            
                EVTA =           0.0000                  EVTA =           0.0000     EVTA_0                           

            TOTAL IN =   340255199.2550              TOTAL IN =           3.2815

          OUT:                                     OUT:
          ----                                     ----
              STO-SS =        6187.4219                STO-SS =       1.3370E-12     STORAGE                          
                 WEL =    46656000.0000                   WEL =           0.4500     WEL_0                            
                 RIV =    30184746.9671                   RIV =           0.2908     RIV_0                            
                 GHB =   259643582.3744                   GHB =           2.5043     GHB_0                            
                 RCH =           0.0000                   RCH =           0.0000     RCH_0                            
                EVTA =     3780089.1538                  EVTA =       3.6424E-02     EVTA_0                           

           TOTAL OUT =   340270605.9172             TOTAL OUT =           3.2815

            IN - OUT =      -15406.6622              IN - OUT =      -1.8889E-05

 PERCENT DISCREPANCY =          -0.00     PERCENT DISCREPANCY =          -0.00




         TIME SUMMARY AT END OF TIME STEP    4 IN STRESS PERIOD    7
                    SECONDS     MINUTES      HOURS       DAYS        YEARS
                    -----------------------------------------------------------
   TIME STEP LENGTH 4.32000E+06  72000.      1200.0      50.000     0.13689    
 STRESS PERIOD TIME 1.72800E+07 2.88000E+05  4800.0      200.00     0.54757    
         TOTAL TIME 1.03680E+08 1.72800E+06  28800.      1200.0      3.2854    


end timestep


start timestep kper="8" kstp="1" mode="normal"


 OUTPUT CONTROL FOR STRESS PERIOD 8 IS REPEATED USING SETTINGS FROM A PREVIOUS STRESS PERIOD.


 STRESS PERIOD 8 IS TRANSIENT


 REUSING WELS FROM LAST STRESS PERIOD

 REUSING RIVS FROM LAST STRESS PERIOD

 REUSING GHBS FROM LAST STRESS PERIOD

 REUSING RCHS FROM LAST STRESS PERIOD

 REUSING EVTS FROM LAST STRESS PERIOD
 UBDSV1 SAVING           STO-SS ON UNIT   1017 AT TIME STEP      1, STRESS PERIOD      8
 UBDSV1 SAVING     FLOW-JA-FACE ON UNIT   1017 AT TIME STEP      1, STRESS PERIOD      8
 UBDSV06 SAVING       DATA-SPDIS IN MODEL GEO_MODEL        PACKAGE NPF             CONNECTED TO MODEL GEO_MODEL        PACKAGE NPF              ON UNIT   1017 AT TIME STEP      1, STRESS PERIOD      8
 UBDSV06 SAVING              WEL IN MODEL GEO_MODEL        PACKAGE GEO_MODEL       CONNECTED TO MODEL GEO_MODEL        PACKAGE WEL_0            ON UNIT   1017 AT TIME STEP      1, STRESS PERIOD      8
 UBDSV06 SAVING              RIV IN MODEL GEO_MODEL        PACKAGE GEO_MODEL       CONNECTED TO MODEL GEO_MODEL        PACKAGE RIV_0            ON UNIT   1017 AT TIME STEP      1, STRESS PERIOD      8
 UBDSV06 SAVING              GHB IN MODEL GEO_MODEL        PACKAGE GEO_MODEL       CONNECTED TO MODEL GEO_MODEL        PACKAGE GHB_0            ON UNIT   1017 AT TIME STEP      1, STRESS PERIOD      8
 UBDSV06 SAVING              RCH IN MODEL GEO_MODEL        PACKAGE GEO_MODEL       CONNECTED TO MODEL GEO_MODEL        PACKAGE RCH_0            ON UNIT   1017 AT TIME STEP      1, STRESS PERIOD      8
 UBDSV06 SAVING            EVTA  IN MODEL GEO_MODEL        PACKAGE GEO_MODEL       CONNECTED TO MODEL GEO_MODEL        PACKAGE EVTA_0           ON UNIT   1017 AT TIME STEP      1, STRESS PERIOD      8

 HEAD WILL BE SAVED ON UNIT 1018 AT END OF TIME STEP    1, STRESS PERIOD    8

end timestep


start timestep kper="8" kstp="2" mode="normal"

 UBDSV1 SAVING           STO-SS ON UNIT   1017 AT TIME STEP      2, STRESS PERIOD      8
 UBDSV1 SAVING     FLOW-JA-FACE ON UNIT   1017 AT TIME STEP      2, STRESS PERIOD      8
 UBDSV06 SAVING       DATA-SPDIS IN MODEL GEO_MODEL        PACKAGE NPF             CONNECTED TO MODEL GEO_MODEL        PACKAGE NPF              ON UNIT   1017 AT TIME STEP      2, STRESS PERIOD      8
 UBDSV06 SAVING              WEL IN MODEL GEO_MODEL        PACKAGE GEO_MODEL       CONNECTED TO MODEL GEO_MODEL        PACKAGE WEL_0            ON UNIT   1017 AT TIME STEP      2, STRESS PERIOD      8
 UBDSV06 SAVING              RIV IN MODEL GEO_MODEL        PACKAGE GEO_MODEL       CONNECTED TO MODEL GEO_MODEL        PACKAGE RIV_0            ON UNIT   1017 AT TIME STEP      2, STRESS PERIOD      8
 UBDSV06 SAVING              GHB IN MODEL GEO_MODEL        PACKAGE GEO_MODEL       CONNECTED TO MODEL GEO_MODEL        PACKAGE GHB_0            ON UNIT   1017 AT TIME STEP      2, STRESS PERIOD      8
 UBDSV06 SAVING              RCH IN MODEL GEO_MODEL        PACKAGE GEO_MODEL       CONNECTED TO MODEL GEO_MODEL        PACKAGE RCH_0            ON UNIT   1017 AT TIME STEP      2, STRESS PERIOD      8
 UBDSV06 SAVING            EVTA  IN MODEL GEO_MODEL        PACKAGE GEO_MODEL       CONNECTED TO MODEL GEO_MODEL        PACKAGE EVTA_0           ON UNIT   1017 AT TIME STEP      2, STRESS PERIOD      8

 HEAD WILL BE SAVED ON UNIT 1018 AT END OF TIME STEP    2, STRESS PERIOD    8

end timestep


start timestep kper="8" kstp="3" mode="normal"

 UBDSV1 SAVING           STO-SS ON UNIT   1017 AT TIME STEP      3, STRESS PERIOD      8
 UBDSV1 SAVING     FLOW-JA-FACE ON UNIT   1017 AT TIME STEP      3, STRESS PERIOD      8
 UBDSV06 SAVING       DATA-SPDIS IN MODEL GEO_MODEL        PACKAGE NPF             CONNECTED TO MODEL GEO_MODEL        PACKAGE NPF              ON UNIT   1017 AT TIME STEP      3, STRESS PERIOD      8
 UBDSV06 SAVING              WEL IN MODEL GEO_MODEL        PACKAGE GEO_MODEL       CONNECTED TO MODEL GEO_MODEL        PACKAGE WEL_0            ON UNIT   1017 AT TIME STEP      3, STRESS PERIOD      8
 UBDSV06 SAVING              RIV IN MODEL GEO_MODEL        PACKAGE GEO_MODEL       CONNECTED TO MODEL GEO_MODEL        PACKAGE RIV_0            ON UNIT   1017 AT TIME STEP      3, STRESS PERIOD      8
 UBDSV06 SAVING              GHB IN MODEL GEO_MODEL        PACKAGE GEO_MODEL       CONNECTED TO MODEL GEO_MODEL        PACKAGE GHB_0            ON UNIT   1017 AT TIME STEP      3, STRESS PERIOD      8
 UBDSV06 SAVING              RCH IN MODEL GEO_MODEL        PACKAGE GEO_MODEL       CONNECTED TO MODEL GEO_MODEL        PACKAGE RCH_0            ON UNIT   1017 AT TIME STEP      3, STRESS PERIOD      8
 UBDSV06 SAVING            EVTA  IN MODEL GEO_MODEL        PACKAGE GEO_MODEL       CONNECTED TO MODEL GEO_MODEL        PACKAGE EVTA_0           ON UNIT   1017 AT TIME STEP      3, STRESS PERIOD      8

 HEAD WILL BE SAVED ON UNIT 1018 AT END OF TIME STEP    3, STRESS PERIOD    8

end timestep


start timestep kper="8" kstp="4" mode="normal"

 UBDSV1 SAVING           STO-SS ON UNIT   1017 AT TIME STEP      4, STRESS PERIOD      8
 UBDSV1 SAVING     FLOW-JA-FACE ON UNIT   1017 AT TIME STEP      4, STRESS PERIOD      8
 UBDSV06 SAVING       DATA-SPDIS IN MODEL GEO_MODEL        PACKAGE NPF             CONNECTED TO MODEL GEO_MODEL        PACKAGE NPF              ON UNIT   1017 AT TIME STEP      4, STRESS PERIOD      8
 UBDSV06 SAVING              WEL IN MODEL GEO_MODEL        PACKAGE GEO_MODEL       CONNECTED TO MODEL GEO_MODEL        PACKAGE WEL_0            ON UNIT   1017 AT TIME STEP      4, STRESS PERIOD      8
 UBDSV06 SAVING              RIV IN MODEL GEO_MODEL        PACKAGE GEO_MODEL       CONNECTED TO MODEL GEO_MODEL        PACKAGE RIV_0            ON UNIT   1017 AT TIME STEP      4, STRESS PERIOD      8
 UBDSV06 SAVING              GHB IN MODEL GEO_MODEL        PACKAGE GEO_MODEL       CONNECTED TO MODEL GEO_MODEL        PACKAGE GHB_0            ON UNIT   1017 AT TIME STEP      4, STRESS PERIOD      8
 UBDSV06 SAVING              RCH IN MODEL GEO_MODEL        PACKAGE GEO_MODEL       CONNECTED TO MODEL GEO_MODEL        PACKAGE RCH_0            ON UNIT   1017 AT TIME STEP      4, STRESS PERIOD      8
 UBDSV06 SAVING            EVTA  IN MODEL GEO_MODEL        PACKAGE GEO_MODEL       CONNECTED TO MODEL GEO_MODEL        PACKAGE EVTA_0           ON UNIT   1017 AT TIME STEP      4, STRESS PERIOD      8

 HEAD WILL BE SAVED ON UNIT 1018 AT END OF TIME STEP    4, STRESS PERIOD    8


  VOLUME BUDGET FOR ENTIRE MODEL AT END OF TIME STEP    4, STRESS PERIOD   8
  ---------------------------------------------------------------------------------------------------

     CUMULATIVE VOLUME      L**3       RATES FOR THIS TIME STEP      L**3/T          PACKAGE NAME    
     ------------------                 ------------------------                     ----------------

           IN:                                      IN:
           ---                                      ---
              STO-SS =       97683.6115                STO-SS =       2.3013E-09     STORAGE                          
                 WEL =           0.0000                   WEL =           0.0000     WEL_0                            
                 RIV =    88855293.2161                   RIV =           0.7351     RIV_0                            
                 GHB =   304247598.2566                   GHB =           2.5153     GHB_0                            
                 RCH =     3758733.4058                   RCH =       3.1074E-02     RCH_0                            
                EVTA =           0.0000                  EVTA =           0.0000     EVTA_0                           

            TOTAL IN =   396959308.4899              TOTAL IN =           3.2815

          OUT:                                     OUT:
          ----                                     ----
              STO-SS =        6187.4223                STO-SS =       1.0003E-10     STORAGE                          
                 WEL =    54432000.0000                   WEL =           0.4500     WEL_0                            
                 RIV =    35209882.7849                   RIV =           0.2908     RIV_0                            
                 GHB =   302917423.1303                   GHB =           2.5043     GHB_0                            
                 RCH =           0.0000                   RCH =           0.0000     RCH_0                            
                EVTA =     4409496.1358                  EVTA =       3.6424E-02     EVTA_0                           

           TOTAL OUT =   396974989.4733             TOTAL OUT =           3.2815

            IN - OUT =      -15680.9834              IN - OUT =      -1.3999E-05

 PERCENT DISCREPANCY =          -0.00     PERCENT DISCREPANCY =          -0.00




         TIME SUMMARY AT END OF TIME STEP    4 IN STRESS PERIOD    8
                    SECONDS     MINUTES      HOURS       DAYS        YEARS
                    -----------------------------------------------------------
   TIME STEP LENGTH 4.32000E+06  72000.      1200.0      50.000     0.13689    
 STRESS PERIOD TIME 1.72800E+07 2.88000E+05  4800.0      200.00     0.54757    
         TOTAL TIME 1.20960E+08 2.01600E+06  33600.      1400.0      3.8330    


end timestep


start timestep kper="9" kstp="1" mode="normal"


 OUTPUT CONTROL FOR STRESS PERIOD 9 IS REPEATED USING SETTINGS FROM A PREVIOUS STRESS PERIOD.


 STRESS PERIOD 9 IS TRANSIENT


 REUSING WELS FROM LAST STRESS PERIOD

 REUSING RIVS FROM LAST STRESS PERIOD

 REUSING GHBS FROM LAST STRESS PERIOD

 REUSING RCHS FROM LAST STRESS PERIOD

 REUSING EVTS FROM LAST STRESS PERIOD
 UBDSV1 SAVING           STO-SS ON UNIT   1017 AT TIME STEP      1, STRESS PERIOD      9
 UBDSV1 SAVING     FLOW-JA-FACE ON UNIT   1017 AT TIME STEP      1, STRESS PERIOD      9
 UBDSV06 SAVING       DATA-SPDIS IN MODEL GEO_MODEL        PACKAGE NPF             CONNECTED TO MODEL GEO_MODEL        PACKAGE NPF              ON UNIT   1017 AT TIME STEP      1, STRESS PERIOD      9
 UBDSV06 SAVING              WEL IN MODEL GEO_MODEL        PACKAGE GEO_MODEL       CONNECTED TO MODEL GEO_MODEL        PACKAGE WEL_0            ON UNIT   1017 AT TIME STEP      1, STRESS PERIOD      9
 UBDSV06 SAVING              RIV IN MODEL GEO_MODEL        PACKAGE GEO_MODEL       CONNECTED TO MODEL GEO_MODEL        PACKAGE RIV_0            ON UNIT   1017 AT TIME STEP      1, STRESS PERIOD      9
 UBDSV06 SAVING              GHB IN MODEL GEO_MODEL        PACKAGE GEO_MODEL       CONNECTED TO MODEL GEO_MODEL        PACKAGE GHB_0            ON UNIT   1017 AT TIME STEP      1, STRESS PERIOD      9
 UBDSV06 SAVING              RCH IN MODEL GEO_MODEL        PACKAGE GEO_MODEL       CONNECTED TO MODEL GEO_MODEL        PACKAGE RCH_0            ON UNIT   1017 AT TIME STEP      1, STRESS PERIOD      9
 UBDSV06 SAVING            EVTA  IN MODEL GEO_MODEL        PACKAGE GEO_MODEL       CONNECTED TO MODEL GEO_MODEL        PACKAGE EVTA_0           ON UNIT   1017 AT TIME STEP      1, STRESS PERIOD      9

 HEAD WILL BE SAVED ON UNIT 1018 AT END OF TIME STEP    1, STRESS PERIOD    9

end timestep


start timestep kper="9" kstp="2" mode="normal"

 UBDSV1 SAVING           STO-SS ON UNIT   1017 AT TIME STEP      2, STRESS PERIOD      9
 UBDSV1 SAVING     FLOW-JA-FACE ON UNIT   1017 AT TIME STEP      2, STRESS PERIOD      9
 UBDSV06 SAVING       DATA-SPDIS IN MODEL GEO_MODEL        PACKAGE NPF             CONNECTED TO MODEL GEO_MODEL        PACKAGE NPF              ON UNIT   1017 AT TIME STEP      2, STRESS PERIOD      9
 UBDSV06 SAVING              WEL IN MODEL GEO_MODEL        PACKAGE GEO_MODEL       CONNECTED TO MODEL GEO_MODEL        PACKAGE WEL_0            ON UNIT   1017 AT TIME STEP      2, STRESS PERIOD      9
 UBDSV06 SAVING              RIV IN MODEL GEO_MODEL        PACKAGE GEO_MODEL       CONNECTED TO MODEL GEO_MODEL        PACKAGE RIV_0            ON UNIT   1017 AT TIME STEP      2, STRESS PERIOD      9
 UBDSV06 SAVING              GHB IN MODEL GEO_MODEL        PACKAGE GEO_MODEL       CONNECTED TO MODEL GEO_MODEL        PACKAGE GHB_0            ON UNIT   1017 AT TIME STEP      2, STRESS PERIOD      9
 UBDSV06 SAVING              RCH IN MODEL GEO_MODEL        PACKAGE GEO_MODEL       CONNECTED TO MODEL GEO_MODEL        PACKAGE RCH_0            ON UNIT   1017 AT TIME STEP      2, STRESS PERIOD      9
 UBDSV06 SAVING            EVTA  IN MODEL GEO_MODEL        PACKAGE GEO_MODEL       CONNECTED TO MODEL GEO_MODEL        PACKAGE EVTA_0           ON UNIT   1017 AT TIME STEP      2, STRESS PERIOD      9

 HEAD WILL BE SAVED ON UNIT 1018 AT END OF TIME STEP    2, STRESS PERIOD    9

end timestep


start timestep kper="9" kstp="3" mode="normal"

 UBDSV1 SAVING           STO-SS ON UNIT   1017 AT TIME STEP      3, STRESS PERIOD      9
 UBDSV1 SAVING     FLOW-JA-FACE ON UNIT   1017 AT TIME STEP      3, STRESS PERIOD      9
 UBDSV06 SAVING       DATA-SPDIS IN MODEL GEO_MODEL        PACKAGE NPF             CONNECTED TO MODEL GEO_MODEL        PACKAGE NPF              ON UNIT   1017 AT TIME STEP      3, STRESS PERIOD      9
 UBDSV06 SAVING              WEL IN MODEL GEO_MODEL        PACKAGE GEO_MODEL       CONNECTED TO MODEL GEO_MODEL        PACKAGE WEL_0            ON UNIT   1017 AT TIME STEP      3, STRESS PERIOD      9
 UBDSV06 SAVING              RIV IN MODEL GEO_MODEL        PACKAGE GEO_MODEL       CONNECTED TO MODEL GEO_MODEL        PACKAGE RIV_0            ON UNIT   1017 AT TIME STEP      3, STRESS PERIOD      9
 UBDSV06 SAVING              GHB IN MODEL GEO_MODEL        PACKAGE GEO_MODEL       CONNECTED TO MODEL GEO_MODEL        PACKAGE GHB_0            ON UNIT   1017 AT TIME STEP      3, STRESS PERIOD      9
 UBDSV06 SAVING              RCH IN MODEL GEO_MODEL        PACKAGE GEO_MODEL       CONNECTED TO MODEL GEO_MODEL        PACKAGE RCH_0            ON UNIT   1017 AT TIME STEP      3, STRESS PERIOD      9
 UBDSV06 SAVING            EVTA  IN MODEL GEO_MODEL        PACKAGE GEO_MODEL       CONNECTED TO MODEL GEO_MODEL        PACKAGE EVTA_0           ON UNIT   1017 AT TIME STEP      3, STRESS PERIOD      9

 HEAD WILL BE SAVED ON UNIT 1018 AT END OF TIME STEP    3, STRESS PERIOD    9

end timestep


start timestep kper="9" kstp="4" mode="normal"

 UBDSV1 SAVING           STO-SS ON UNIT   1017 AT TIME STEP      4, STRESS PERIOD      9
 UBDSV1 SAVING     FLOW-JA-FACE ON UNIT   1017 AT TIME STEP      4, STRESS PERIOD      9
 UBDSV06 SAVING       DATA-SPDIS IN MODEL GEO_MODEL        PACKAGE NPF             CONNECTED TO MODEL GEO_MODEL        PACKAGE NPF              ON UNIT   1017 AT TIME STEP      4, STRESS PERIOD      9
 UBDSV06 SAVING              WEL IN MODEL GEO_MODEL        PACKAGE GEO_MODEL       CONNECTED TO MODEL GEO_MODEL        PACKAGE WEL_0            ON UNIT   1017 AT TIME STEP      4, STRESS PERIOD      9
 UBDSV06 SAVING              RIV IN MODEL GEO_MODEL        PACKAGE GEO_MODEL       CONNECTED TO MODEL GEO_MODEL        PACKAGE RIV_0            ON UNIT   1017 AT TIME STEP      4, STRESS PERIOD      9
 UBDSV06 SAVING              GHB IN MODEL GEO_MODEL        PACKAGE GEO_MODEL       CONNECTED TO MODEL GEO_MODEL        PACKAGE GHB_0            ON UNIT   1017 AT TIME STEP      4, STRESS PERIOD      9
 UBDSV06 SAVING              RCH IN MODEL GEO_MODEL        PACKAGE GEO_MODEL       CONNECTED TO MODEL GEO_MODEL        PACKAGE RCH_0            ON UNIT   1017 AT TIME STEP      4, STRESS PERIOD      9
 UBDSV06 SAVING            EVTA  IN MODEL GEO_MODEL        PACKAGE GEO_MODEL       CONNECTED TO MODEL GEO_MODEL        PACKAGE EVTA_0           ON UNIT   1017 AT TIME STEP      4, STRESS PERIOD      9

 HEAD WILL BE SAVED ON UNIT 1018 AT END OF TIME STEP    4, STRESS PERIOD    9


  VOLUME BUDGET FOR ENTIRE MODEL AT END OF TIME STEP    4, STRESS PERIOD   9
  ---------------------------------------------------------------------------------------------------

     CUMULATIVE VOLUME      L**3       RATES FOR THIS TIME STEP      L**3/T          PACKAGE NAME    
     ------------------                 ------------------------                     ----------------

           IN:                                      IN:
           ---                                      ---
              STO-SS =       97683.7493                STO-SS =       1.0298E-08     STORAGE                          
                 WEL =           0.0000                   WEL =           0.0000     WEL_0                            
                 RIV =   101558464.8418                   RIV =           0.7351     RIV_0                            
                 GHB =   347711602.9568                   GHB =           2.5153     GHB_0                            
                 RCH =     4295695.3164                   RCH =       3.1074E-02     RCH_0                            
                EVTA =           0.0000                  EVTA =           0.0000     EVTA_0                           

            TOTAL IN =   453663446.8644              TOTAL IN =           3.2815

          OUT:                                     OUT:
          ----                                     ----
              STO-SS =        6187.4223                STO-SS =           0.0000     STORAGE                          
                 WEL =    62208000.0000                   WEL =           0.4500     WEL_0                            
                 RIV =    40234997.5421                   RIV =           0.2908     RIV_0                            
                 GHB =   346191263.4993                   GHB =           2.5043     GHB_0                            
                 RCH =           0.0000                   RCH =           0.0000     RCH_0                            
                EVTA =     5038900.9626                  EVTA =       3.6424E-02     EVTA_0                           

           TOTAL OUT =   453679349.4264             TOTAL OUT =           3.2815

            IN - OUT =      -15902.5620              IN - OUT =      -1.2214E-05

 PERCENT DISCREPANCY =          -0.00     PERCENT DISCREPANCY =          -0.00




         TIME SUMMARY AT END OF TIME STEP    4 IN STRESS PERIOD    9
                    SECONDS     MINUTES      HOURS       DAYS        YEARS
                    -----------------------------------------------------------
   TIME STEP LENGTH 4.32000E+06  72000.      1200.0      50.000     0.13689    
 STRESS PERIOD TIME 1.72800E+07 2.88000E+05  4800.0      200.00     0.54757    
         TOTAL TIME 1.38240E+08 2.30400E+06  38400.      1600.0      4.3806    


end timestep


start timestep kper="10" kstp="1" mode="normal"


 OUTPUT CONTROL FOR STRESS PERIOD 10 IS REPEATED USING SETTINGS FROM A PREVIOUS STRESS PERIOD.


 STRESS PERIOD 10 IS TRANSIENT


 REUSING WELS FROM LAST STRESS PERIOD

 REUSING RIVS FROM LAST STRESS PERIOD

 REUSING GHBS FROM LAST STRESS PERIOD

 REUSING RCHS FROM LAST STRESS PERIOD

 REUSING EVTS FROM LAST STRESS PERIOD
 UBDSV1 SAVING           STO-SS ON UNIT   1017 AT TIME STEP      1, STRESS PERIOD     10
 UBDSV1 SAVING     FLOW-JA-FACE ON UNIT   1017 AT TIME STEP      1, STRESS PERIOD     10
 UBDSV06 SAVING       DATA-SPDIS IN MODEL GEO_MODEL        PACKAGE NPF             CONNECTED TO MODEL GEO_MODEL        PACKAGE NPF              ON UNIT   1017 AT TIME STEP      1, STRESS PERIOD     10
 UBDSV06 SAVING              WEL IN MODEL GEO_MODEL        PACKAGE GEO_MODEL       CONNECTED TO MODEL GEO_MODEL        PACKAGE WEL_0            ON UNIT   1017 AT TIME STEP      1, STRESS PERIOD     10
 UBDSV06 SAVING              RIV IN MODEL GEO_MODEL        PACKAGE GEO_MODEL       CONNECTED TO MODEL GEO_MODEL        PACKAGE RIV_0            ON UNIT   1017 AT TIME STEP      1, STRESS PERIOD     10
 UBDSV06 SAVING              GHB IN MODEL GEO_MODEL        PACKAGE GEO_MODEL       CONNECTED TO MODEL GEO_MODEL        PACKAGE GHB_0            ON UNIT   1017 AT TIME STEP      1, STRESS PERIOD     10
 UBDSV06 SAVING              RCH IN MODEL GEO_MODEL        PACKAGE GEO_MODEL       CONNECTED TO MODEL GEO_MODEL        PACKAGE RCH_0            ON UNIT   1017 AT TIME STEP      1, STRESS PERIOD     10
 UBDSV06 SAVING            EVTA  IN MODEL GEO_MODEL        PACKAGE GEO_MODEL       CONNECTED TO MODEL GEO_MODEL        PACKAGE EVTA_0           ON UNIT   1017 AT TIME STEP      1, STRESS PERIOD     10

 HEAD WILL BE SAVED ON UNIT 1018 AT END OF TIME STEP    1, STRESS PERIOD   10

end timestep


start timestep kper="10" kstp="2" mode="normal"

 UBDSV1 SAVING           STO-SS ON UNIT   1017 AT TIME STEP      2, STRESS PERIOD     10
 UBDSV1 SAVING     FLOW-JA-FACE ON UNIT   1017 AT TIME STEP      2, STRESS PERIOD     10
 UBDSV06 SAVING       DATA-SPDIS IN MODEL GEO_MODEL        PACKAGE NPF             CONNECTED TO MODEL GEO_MODEL        PACKAGE NPF              ON UNIT   1017 AT TIME STEP      2, STRESS PERIOD     10
 UBDSV06 SAVING              WEL IN MODEL GEO_MODEL        PACKAGE GEO_MODEL       CONNECTED TO MODEL GEO_MODEL        PACKAGE WEL_0            ON UNIT   1017 AT TIME STEP      2, STRESS PERIOD     10
 UBDSV06 SAVING              RIV IN MODEL GEO_MODEL        PACKAGE GEO_MODEL       CONNECTED TO MODEL GEO_MODEL        PACKAGE RIV_0            ON UNIT   1017 AT TIME STEP      2, STRESS PERIOD     10
 UBDSV06 SAVING              GHB IN MODEL GEO_MODEL        PACKAGE GEO_MODEL       CONNECTED TO MODEL GEO_MODEL        PACKAGE GHB_0            ON UNIT   1017 AT TIME STEP      2, STRESS PERIOD     10
 UBDSV06 SAVING              RCH IN MODEL GEO_MODEL        PACKAGE GEO_MODEL       CONNECTED TO MODEL GEO_MODEL        PACKAGE RCH_0            ON UNIT   1017 AT TIME STEP      2, STRESS PERIOD     10
 UBDSV06 SAVING            EVTA  IN MODEL GEO_MODEL        PACKAGE GEO_MODEL       CONNECTED TO MODEL GEO_MODEL        PACKAGE EVTA_0           ON UNIT   1017 AT TIME STEP      2, STRESS PERIOD     10

 HEAD WILL BE SAVED ON UNIT 1018 AT END OF TIME STEP    2, STRESS PERIOD   10

end timestep


start timestep kper="10" kstp="3" mode="normal"

 UBDSV1 SAVING           STO-SS ON UNIT   1017 AT TIME STEP      3, STRESS PERIOD     10
 UBDSV1 SAVING     FLOW-JA-FACE ON UNIT   1017 AT TIME STEP      3, STRESS PERIOD     10
 UBDSV06 SAVING       DATA-SPDIS IN MODEL GEO_MODEL        PACKAGE NPF             CONNECTED TO MODEL GEO_MODEL        PACKAGE NPF              ON UNIT   1017 AT TIME STEP      3, STRESS PERIOD     10
 UBDSV06 SAVING              WEL IN MODEL GEO_MODEL        PACKAGE GEO_MODEL       CONNECTED TO MODEL GEO_MODEL        PACKAGE WEL_0            ON UNIT   1017 AT TIME STEP      3, STRESS PERIOD     10
 UBDSV06 SAVING              RIV IN MODEL GEO_MODEL        PACKAGE GEO_MODEL       CONNECTED TO MODEL GEO_MODEL        PACKAGE RIV_0            ON UNIT   1017 AT TIME STEP      3, STRESS PERIOD     10
 UBDSV06 SAVING              GHB IN MODEL GEO_MODEL        PACKAGE GEO_MODEL       CONNECTED TO MODEL GEO_MODEL        PACKAGE GHB_0            ON UNIT   1017 AT TIME STEP      3, STRESS PERIOD     10
 UBDSV06 SAVING              RCH IN MODEL GEO_MODEL        PACKAGE GEO_MODEL       CONNECTED TO MODEL GEO_MODEL        PACKAGE RCH_0            ON UNIT   1017 AT TIME STEP      3, STRESS PERIOD     10
 UBDSV06 SAVING            EVTA  IN MODEL GEO_MODEL        PACKAGE GEO_MODEL       CONNECTED TO MODEL GEO_MODEL        PACKAGE EVTA_0           ON UNIT   1017 AT TIME STEP      3, STRESS PERIOD     10

 HEAD WILL BE SAVED ON UNIT 1018 AT END OF TIME STEP    3, STRESS PERIOD   10

end timestep


start timestep kper="10" kstp="4" mode="normal"

 UBDSV1 SAVING           STO-SS ON UNIT   1017 AT TIME STEP      4, STRESS PERIOD     10
 UBDSV1 SAVING     FLOW-JA-FACE ON UNIT   1017 AT TIME STEP      4, STRESS PERIOD     10
 UBDSV06 SAVING       DATA-SPDIS IN MODEL GEO_MODEL        PACKAGE NPF             CONNECTED TO MODEL GEO_MODEL        PACKAGE NPF              ON UNIT   1017 AT TIME STEP      4, STRESS PERIOD     10
 UBDSV06 SAVING              WEL IN MODEL GEO_MODEL        PACKAGE GEO_MODEL       CONNECTED TO MODEL GEO_MODEL        PACKAGE WEL_0            ON UNIT   1017 AT TIME STEP      4, STRESS PERIOD     10
 UBDSV06 SAVING              RIV IN MODEL GEO_MODEL        PACKAGE GEO_MODEL       CONNECTED TO MODEL GEO_MODEL        PACKAGE RIV_0            ON UNIT   1017 AT TIME STEP      4, STRESS PERIOD     10
 UBDSV06 SAVING              GHB IN MODEL GEO_MODEL        PACKAGE GEO_MODEL       CONNECTED TO MODEL GEO_MODEL        PACKAGE GHB_0            ON UNIT   1017 AT TIME STEP      4, STRESS PERIOD     10
 UBDSV06 SAVING              RCH IN MODEL GEO_MODEL        PACKAGE GEO_MODEL       CONNECTED TO MODEL GEO_MODEL        PACKAGE RCH_0            ON UNIT   1017 AT TIME STEP      4, STRESS PERIOD     10
 UBDSV06 SAVING            EVTA  IN MODEL GEO_MODEL        PACKAGE GEO_MODEL       CONNECTED TO MODEL GEO_MODEL        PACKAGE EVTA_0           ON UNIT   1017 AT TIME STEP      4, STRESS PERIOD     10

 HEAD WILL BE SAVED ON UNIT 1018 AT END OF TIME STEP    4, STRESS PERIOD   10


  VOLUME BUDGET FOR ENTIRE MODEL AT END OF TIME STEP    4, STRESS PERIOD  10
  ---------------------------------------------------------------------------------------------------

     CUMULATIVE VOLUME      L**3       RATES FOR THIS TIME STEP      L**3/T          PACKAGE NAME    
     ------------------                 ------------------------                     ----------------

           IN:                                      IN:
           ---                                      ---
              STO-SS =       97683.9012                STO-SS =       1.2863E-08     STORAGE                          
                 WEL =           0.0000                   WEL =           0.0000     WEL_0                            
                 RIV =   114261653.6091                   RIV =           0.7351     RIV_0                            
                 GHB =   391175607.8104                   GHB =           2.5153     GHB_0                            
                 RCH =     4832657.2271                   RCH =       3.1074E-02     RCH_0                            
                EVTA =           0.0000                  EVTA =           0.0000     EVTA_0                           

            TOTAL IN =   510367602.5478              TOTAL IN =           3.2815

          OUT:                                     OUT:
          ----                                     ----
              STO-SS =        6187.4224                STO-SS =           0.0000     STORAGE                          
                 WEL =    69984000.0000                   WEL =           0.4500     WEL_0                            
                 RIV =    45260101.1408                   RIV =           0.2908     RIV_0                            
                 GHB =   389465103.6795                   GHB =           2.5043     GHB_0                            
                 RCH =           0.0000                   RCH =           0.0000     RCH_0                            
                EVTA =     5668304.6304                  EVTA =       3.6424E-02     EVTA_0                           

           TOTAL OUT =   510383696.8731             TOTAL OUT =           3.2815

            IN - OUT =      -16094.3253              IN - OUT =      -1.0257E-05

 PERCENT DISCREPANCY =          -0.00     PERCENT DISCREPANCY =          -0.00




         TIME SUMMARY AT END OF TIME STEP    4 IN STRESS PERIOD   10
                    SECONDS     MINUTES      HOURS       DAYS        YEARS
                    -----------------------------------------------------------
   TIME STEP LENGTH 4.32000E+06  72000.      1200.0      50.000     0.13689    
 STRESS PERIOD TIME 1.72800E+07 2.88000E+05  4800.0      200.00     0.54757    
         TOTAL TIME 1.55520E+08 2.59200E+06  43200.      1800.0      4.9281    


end timestep


start timestep kper="11" kstp="1" mode="normal"


 OUTPUT CONTROL FOR STRESS PERIOD 11 IS REPEATED USING SETTINGS FROM A PREVIOUS STRESS PERIOD.


 STRESS PERIOD 11 IS TRANSIENT


 REUSING WELS FROM LAST STRESS PERIOD

 REUSING RIVS FROM LAST STRESS PERIOD

 REUSING GHBS FROM LAST STRESS PERIOD

 REUSING RCHS FROM LAST STRESS PERIOD

 REUSING EVTS FROM LAST STRESS PERIOD
 UBDSV1 SAVING           STO-SS ON UNIT   1017 AT TIME STEP      1, STRESS PERIOD     11
 UBDSV1 SAVING     FLOW-JA-FACE ON UNIT   1017 AT TIME STEP      1, STRESS PERIOD     11
 UBDSV06 SAVING       DATA-SPDIS IN MODEL GEO_MODEL        PACKAGE NPF             CONNECTED TO MODEL GEO_MODEL        PACKAGE NPF              ON UNIT   1017 AT TIME STEP      1, STRESS PERIOD     11
 UBDSV06 SAVING              WEL IN MODEL GEO_MODEL        PACKAGE GEO_MODEL       CONNECTED TO MODEL GEO_MODEL        PACKAGE WEL_0            ON UNIT   1017 AT TIME STEP      1, STRESS PERIOD     11
 UBDSV06 SAVING              RIV IN MODEL GEO_MODEL        PACKAGE GEO_MODEL       CONNECTED TO MODEL GEO_MODEL        PACKAGE RIV_0            ON UNIT   1017 AT TIME STEP      1, STRESS PERIOD     11
 UBDSV06 SAVING              GHB IN MODEL GEO_MODEL        PACKAGE GEO_MODEL       CONNECTED TO MODEL GEO_MODEL        PACKAGE GHB_0            ON UNIT   1017 AT TIME STEP      1, STRESS PERIOD     11
 UBDSV06 SAVING              RCH IN MODEL GEO_MODEL        PACKAGE GEO_MODEL       CONNECTED TO MODEL GEO_MODEL        PACKAGE RCH_0            ON UNIT   1017 AT TIME STEP      1, STRESS PERIOD     11
 UBDSV06 SAVING            EVTA  IN MODEL GEO_MODEL        PACKAGE GEO_MODEL       CONNECTED TO MODEL GEO_MODEL        PACKAGE EVTA_0           ON UNIT   1017 AT TIME STEP      1, STRESS PERIOD     11

 HEAD WILL BE SAVED ON UNIT 1018 AT END OF TIME STEP    1, STRESS PERIOD   11

end timestep


start timestep kper="11" kstp="2" mode="normal"

 UBDSV1 SAVING           STO-SS ON UNIT   1017 AT TIME STEP      2, STRESS PERIOD     11
 UBDSV1 SAVING     FLOW-JA-FACE ON UNIT   1017 AT TIME STEP      2, STRESS PERIOD     11
 UBDSV06 SAVING       DATA-SPDIS IN MODEL GEO_MODEL        PACKAGE NPF             CONNECTED TO MODEL GEO_MODEL        PACKAGE NPF              ON UNIT   1017 AT TIME STEP      2, STRESS PERIOD     11
 UBDSV06 SAVING              WEL IN MODEL GEO_MODEL        PACKAGE GEO_MODEL       CONNECTED TO MODEL GEO_MODEL        PACKAGE WEL_0            ON UNIT   1017 AT TIME STEP      2, STRESS PERIOD     11
 UBDSV06 SAVING              RIV IN MODEL GEO_MODEL        PACKAGE GEO_MODEL       CONNECTED TO MODEL GEO_MODEL        PACKAGE RIV_0            ON UNIT   1017 AT TIME STEP      2, STRESS PERIOD     11
 UBDSV06 SAVING              GHB IN MODEL GEO_MODEL        PACKAGE GEO_MODEL       CONNECTED TO MODEL GEO_MODEL        PACKAGE GHB_0            ON UNIT   1017 AT TIME STEP      2, STRESS PERIOD     11
 UBDSV06 SAVING              RCH IN MODEL GEO_MODEL        PACKAGE GEO_MODEL       CONNECTED TO MODEL GEO_MODEL        PACKAGE RCH_0            ON UNIT   1017 AT TIME STEP      2, STRESS PERIOD     11
 UBDSV06 SAVING            EVTA  IN MODEL GEO_MODEL        PACKAGE GEO_MODEL       CONNECTED TO MODEL GEO_MODEL        PACKAGE EVTA_0           ON UNIT   1017 AT TIME STEP      2, STRESS PERIOD     11

 HEAD WILL BE SAVED ON UNIT 1018 AT END OF TIME STEP    2, STRESS PERIOD   11

end timestep


start timestep kper="11" kstp="3" mode="normal"

 UBDSV1 SAVING           STO-SS ON UNIT   1017 AT TIME STEP      3, STRESS PERIOD     11
 UBDSV1 SAVING     FLOW-JA-FACE ON UNIT   1017 AT TIME STEP      3, STRESS PERIOD     11
 UBDSV06 SAVING       DATA-SPDIS IN MODEL GEO_MODEL        PACKAGE NPF             CONNECTED TO MODEL GEO_MODEL        PACKAGE NPF              ON UNIT   1017 AT TIME STEP      3, STRESS PERIOD     11
 UBDSV06 SAVING              WEL IN MODEL GEO_MODEL        PACKAGE GEO_MODEL       CONNECTED TO MODEL GEO_MODEL        PACKAGE WEL_0            ON UNIT   1017 AT TIME STEP      3, STRESS PERIOD     11
 UBDSV06 SAVING              RIV IN MODEL GEO_MODEL        PACKAGE GEO_MODEL       CONNECTED TO MODEL GEO_MODEL        PACKAGE RIV_0            ON UNIT   1017 AT TIME STEP      3, STRESS PERIOD     11
 UBDSV06 SAVING              GHB IN MODEL GEO_MODEL        PACKAGE GEO_MODEL       CONNECTED TO MODEL GEO_MODEL        PACKAGE GHB_0            ON UNIT   1017 AT TIME STEP      3, STRESS PERIOD     11
 UBDSV06 SAVING              RCH IN MODEL GEO_MODEL        PACKAGE GEO_MODEL       CONNECTED TO MODEL GEO_MODEL        PACKAGE RCH_0            ON UNIT   1017 AT TIME STEP      3, STRESS PERIOD     11
 UBDSV06 SAVING            EVTA  IN MODEL GEO_MODEL        PACKAGE GEO_MODEL       CONNECTED TO MODEL GEO_MODEL        PACKAGE EVTA_0           ON UNIT   1017 AT TIME STEP      3, STRESS PERIOD     11

 HEAD WILL BE SAVED ON UNIT 1018 AT END OF TIME STEP    3, STRESS PERIOD   11

end timestep


start timestep kper="11" kstp="4" mode="normal"

 UBDSV1 SAVING           STO-SS ON UNIT   1017 AT TIME STEP      4, STRESS PERIOD     11
 UBDSV1 SAVING     FLOW-JA-FACE ON UNIT   1017 AT TIME STEP      4, STRESS PERIOD     11
 UBDSV06 SAVING       DATA-SPDIS IN MODEL GEO_MODEL        PACKAGE NPF             CONNECTED TO MODEL GEO_MODEL        PACKAGE NPF              ON UNIT   1017 AT TIME STEP      4, STRESS PERIOD     11
 UBDSV06 SAVING              WEL IN MODEL GEO_MODEL        PACKAGE GEO_MODEL       CONNECTED TO MODEL GEO_MODEL        PACKAGE WEL_0            ON UNIT   1017 AT TIME STEP      4, STRESS PERIOD     11
 UBDSV06 SAVING              RIV IN MODEL GEO_MODEL        PACKAGE GEO_MODEL       CONNECTED TO MODEL GEO_MODEL        PACKAGE RIV_0            ON UNIT   1017 AT TIME STEP      4, STRESS PERIOD     11
 UBDSV06 SAVING              GHB IN MODEL GEO_MODEL        PACKAGE GEO_MODEL       CONNECTED TO MODEL GEO_MODEL        PACKAGE GHB_0            ON UNIT   1017 AT TIME STEP      4, STRESS PERIOD     11
 UBDSV06 SAVING              RCH IN MODEL GEO_MODEL        PACKAGE GEO_MODEL       CONNECTED TO MODEL GEO_MODEL        PACKAGE RCH_0            ON UNIT   1017 AT TIME STEP      4, STRESS PERIOD     11
 UBDSV06 SAVING            EVTA  IN MODEL GEO_MODEL        PACKAGE GEO_MODEL       CONNECTED TO MODEL GEO_MODEL        PACKAGE EVTA_0           ON UNIT   1017 AT TIME STEP      4, STRESS PERIOD     11

 HEAD WILL BE SAVED ON UNIT 1018 AT END OF TIME STEP    4, STRESS PERIOD   11


  VOLUME BUDGET FOR ENTIRE MODEL AT END OF TIME STEP    4, STRESS PERIOD  11
  ---------------------------------------------------------------------------------------------------

     CUMULATIVE VOLUME      L**3       RATES FOR THIS TIME STEP      L**3/T          PACKAGE NAME    
     ------------------                 ------------------------                     ----------------

           IN:                                      IN:
           ---                                      ---
              STO-SS =       97684.0017                STO-SS =       9.4509E-09     STORAGE                          
                 WEL =           0.0000                   WEL =           0.0000     WEL_0                            
                 RIV =   126964857.7885                   RIV =           0.7351     RIV_0                            
                 GHB =   434639612.7998                   GHB =           2.5153     GHB_0                            
                 RCH =     5369619.1378                   RCH =       3.1074E-02     RCH_0                            
                EVTA =           0.0000                  EVTA =           0.0000     EVTA_0                           

            TOTAL IN =   567071773.7278              TOTAL IN =           3.2815

          OUT:                                     OUT:
          ----                                     ----
              STO-SS =        6187.4226                STO-SS =           0.0000     STORAGE                          
                 WEL =    77760000.0000                   WEL =           0.4500     WEL_0                            
                 RIV =    50285194.7991                   RIV =           0.2908     RIV_0                            
                 GHB =   432738943.6926                   GHB =           2.5043     GHB_0                            
                 RCH =           0.0000                   RCH =           0.0000     RCH_0                            
                EVTA =     6297707.2651                  EVTA =       3.6424E-02     EVTA_0                           

           TOTAL OUT =   567088033.1793             TOTAL OUT =           3.2815

            IN - OUT =      -16259.4516              IN - OUT =      -8.9734E-06

 PERCENT DISCREPANCY =          -0.00     PERCENT DISCREPANCY =          -0.00




         TIME SUMMARY AT END OF TIME STEP    4 IN STRESS PERIOD   11
                    SECONDS     MINUTES      HOURS       DAYS        YEARS
                    -----------------------------------------------------------
   TIME STEP LENGTH 4.32000E+06  72000.      1200.0      50.000     0.13689    
 STRESS PERIOD TIME 1.72800E+07 2.88000E+05  4800.0      200.00     0.54757    
         TOTAL TIME 1.72800E+08 2.88000E+06  48000.      2000.0      5.4757    


end timestep

