                                   MODFLOW 6
                U.S. GEOLOGICAL SURVEY MODULAR HYDROLOGIC MODEL
                          GROUNDWATER FLOW MODEL (GWF)
                            VERSION 6.3.0 03/04/2022

   MODFLOW 6 compiled Mar 02 2022 15:29:04 with Intel(R) Fortran Intel(R) 64
   Compiler Classic for applications running on Intel(R) 64, Version 2021.5.0
                             Build 20211109_000000

This software has been approved for release by the U.S. Geological 
Survey (USGS). Although the software has been subjected to rigorous 
review, the USGS reserves the right to update the software as needed 
pursuant to further analysis and review. No warranty, expressed or 
implied, is made by the USGS or the U.S. Government as to the 
functionality of the software and related material nor shall the 
fact of release constitute any such warranty. Furthermore, the 
software is released on condition that neither the USGS nor the U.S. 
Government shall be held liable for any damages resulting from its 
authorized or unauthorized use. Also refer to the USGS Water 
Resources Software User Rights Notice for complete use, copyright, 
and distribution information.


As a work of the United States Government, this USGS product is 
in the public domain within the United States. You can copy, 
modify, distribute, and perform the work, even for commercial 
purposes, all without asking permission. Additionally, USGS 
waives copyright and related rights in the work worldwide 
through CC0 1.0 Universal Public Domain Dedication 
(https://creativecommons.org/publicdomain/zero/1.0/).

The following GNU Lesser General Public License (LGPL) libraries
are used in this USGS product:

    SPARSKIT version 2.0
      ilut, luson, and qsplit 
      (https://www-users.cse.umn.edu/~saad/software/SPARSKIT/)

    RCM - Reverse Cuthill McKee Ordering
      (https://people.math.sc.edu/Burkardt/f_src/rcm/rcm.html)

    BLAS - Basic Linear Algebra Subprograms Level 1
      (https://people.math.sc.edu/Burkardt/f_src/blas1_d/blas1_d.html)

    SPARSEKIT - Sparse Matrix Utility Package
      amux, dperm, dvperm, rperm, and cperm
      (https://people.sc.fsu.edu/~jburkardt/f77_src/sparsekit/sparsekit.html)

The following BSD-3 License libraries are used in this USGS product:

    Modern Fortran DAG Library
      Copyright (c) 2018, Jacob Williams
      All rights reserved.
      (https://github.com/jacobwilliams/daglib)

MODFLOW 6 compiler options: /Isrc\libmf6core.a.p /Isrc /I..\src
/Isrc\libmf6_external.a.p /MTd /nologo /warn:general /warn:truncated_source
/stand:f08 /Zi /traceback /O2 /Zi /fpe:0 /fpp /Qdiag-disable:7416
/Qdiag-disable:7025 /Qdiag-disable:5268
/Fdsrc\libmf6core.a.p\Utilities_compilerversion.F90.pdb
/module:src\libmf6core.a.p
/Fosrc/libmf6core.a.p/Utilities_compilerversion.F90.obj /c

System command used to initiate simulation:
../exe/mf6.exe

MODFLOW was compiled using uniform precision.

Real Variables
  KIND: 8
  TINY (smallest non-zero value):    2.225074-308
  HUGE (largest value):    1.797693+308
  PRECISION: 15
  BIT SIZE: 64

Integer Variables
  KIND: 4
  HUGE (largest value): 2147483647
  BIT SIZE: 32

Long Integer Variables
  KIND: 8
  HUGE (largest value): 9223372036854775807
  BIT SIZE: 64

Logical Variables
  KIND: 4
  BIT SIZE: 32
 

 OPENED .\geo_model.disv
 FILE TYPE:DISV6                  UNIT 1005   STATUS:OLD                 
 FORMAT:FORMATTED              ACCESS:SEQUENTIAL          
 ACTION:READ                


 OPENED .\geo_model.ic
 FILE TYPE:IC6                    UNIT 1006   STATUS:OLD                 
 FORMAT:FORMATTED              ACCESS:SEQUENTIAL          
 ACTION:READ                


 OPENED .\geo_model.npf
 FILE TYPE:NPF6                   UNIT 1007   STATUS:OLD                 
 FORMAT:FORMATTED              ACCESS:SEQUENTIAL          
 ACTION:READ                


 OPENED .\geo_model.sto
 FILE TYPE:STO6                   UNIT 1008   STATUS:OLD                 
 FORMAT:FORMATTED              ACCESS:SEQUENTIAL          
 ACTION:READ                


 OPENED .\geo_model.evta
 FILE TYPE:EVT6                   UNIT 1009   STATUS:OLD                 
 FORMAT:FORMATTED              ACCESS:SEQUENTIAL          
 ACTION:READ                


 OPENED .\geo_model.rch
 FILE TYPE:RCH6                   UNIT 1010   STATUS:OLD                 
 FORMAT:FORMATTED              ACCESS:SEQUENTIAL          
 ACTION:READ                


 OPENED .\geo_model.wel
 FILE TYPE:WEL6                   UNIT 1011   STATUS:OLD                 
 FORMAT:FORMATTED              ACCESS:SEQUENTIAL          
 ACTION:READ                


 OPENED .\geo_model.riv
 FILE TYPE:RIV6                   UNIT 1012   STATUS:OLD                 
 FORMAT:FORMATTED              ACCESS:SEQUENTIAL          
 ACTION:READ                


 OPENED .\geo_model.ghb
 FILE TYPE:GHB6                   UNIT 1013   STATUS:OLD                 
 FORMAT:FORMATTED              ACCESS:SEQUENTIAL          
 ACTION:READ                


 OPENED .\geo_model.oc
 FILE TYPE:OC6                    UNIT 1014   STATUS:OLD                 
 FORMAT:FORMATTED              ACCESS:SEQUENTIAL          
 ACTION:READ                

 NAMEFILE OPTIONS:
    FLOWS WILL BE SAVED TO BUDGET FILE SPECIFIED IN OUTPUT CONTROL
    NEWTON-RAPHSON method enabled for the model.
    NEWTON-RAPHSON UNDER-RELAXATION based on the bottom elevation of the model will be applied to the model.

 DISV -- VERTEX GRID DISCRETIZATION PACKAGE, VERSION 1 : 12/23/2015 - INPUT READ FROM UNIT 1005


 # File generated by Flopy version 3.3.5 on 09/18/2022 at 00:27:16.

 PROCESSING DISCRETIZATION OPTIONS
   MODEL LENGTH UNIT IS UNDEFINED
 END OF DISCRETIZATION OPTIONS

 PROCESSING DISCRETIZATION DIMENSIONS
   NLAY = 3
   NCPL = 2302
   NVERT = 3907
 END OF DISCRETIZATION DIMENSIONS

 PROCESSING GRIDDATA
 END PROCESSING GRIDDATA

 PROCESSING VERTICES
   SUCCESSFULLY READ 3907 (X,Y) COORDINATES
   MINIMUM X COORDINATE =     353300.000000000    
   MAXIMUM X COORDINATE =     356400.000000000    
   MINIMUM Y COORDINATE =     8547900.00000000    
   MAXIMUM Y COORDINATE =     8549600.00000000    
 END PROCESSING VERTICES

 PROCESSING CELL2D
   SUCCESSFULLY READ 2302 CELL2D INFORMATION ENTRIES
   MINIMUM X CELL CENTER =     353304.373000000    
   MAXIMUM X CELL CENTER =     356395.232000000    
   MINIMUM Y CELL CENTER =     8547930.00000000    
   MAXIMUM Y CELL CENTER =     8549540.00000000    
   MAXIMUM NUMBER OF CELL2D VERTICES IS 10 FOR CELL 520
 END PROCESSING VERTICES

 NPF -- NODE PROPERTY FLOW PACKAGE, VERSION 1, 3/30/2015 INPUT READ FROM UNIT 1007


 # File generated by Flopy version 3.3.5 on 09/18/2022 at 00:27:16.
 PROCESSING NPF OPTIONS
    SPECIFIC DISCHARGE WILL BE CALCULATED AT CELL CENTERS AND WRITTEN TO DATA-SPDIS IN BUDGET FILE WHEN REQUESTED.
 END OF NPF OPTIONS

 WEL   -- WEL PACKAGE, VERSION 8, 2/22/2014 INPUT READ FROM UNIT 1011
 # File generated by Flopy version 3.3.5 on 09/18/2022 at 00:27:16.

 PROCESSING WEL OPTIONS
 END OF WEL OPTIONS

 PROCESSING WEL DIMENSIONS
    MAXBOUND =       3
 END OF WEL DIMENSIONS

 RIV   -- RIV PACKAGE, VERSION 8, 2/22/2014 INPUT READ FROM UNIT 1012
 # File generated by Flopy version 3.3.5 on 09/18/2022 at 00:27:16.

 PROCESSING RIV OPTIONS
 END OF RIV OPTIONS

 PROCESSING RIV DIMENSIONS
    MAXBOUND =     669
 END OF RIV DIMENSIONS

 GHB   -- GHB PACKAGE, VERSION 8, 2/22/2014 INPUT READ FROM UNIT 1013
 # File generated by Flopy version 3.3.5 on 09/18/2022 at 00:27:16.

 PROCESSING GHB OPTIONS
 END OF GHB OPTIONS

 PROCESSING GHB DIMENSIONS
    MAXBOUND =      37
 END OF GHB DIMENSIONS

 RCH   -- RCH PACKAGE, VERSION 8, 2/22/2014 INPUT READ FROM UNIT 1010
 # File generated by Flopy version 3.3.5 on 09/18/2022 at 00:27:16.

 PROCESSING RCH OPTIONS
 END OF RCH OPTIONS

 PROCESSING RCH DIMENSIONS
    MAXBOUND =    1292
 END OF RCH DIMENSIONS

 EVT   -- EVT PACKAGE, VERSION 8, 2/22/2014 INPUT READ FROM UNIT 1009
 # File generated by Flopy version 3.3.5 on 09/18/2022 at 00:27:16.

 PROCESSING EVT OPTIONS
    EVAPOTRANSPIRATION INPUT WILL BE READ AS ARRAYS.
 END OF EVTA OPTIONS

 IC -- INITIAL CONDITIONS PACKAGE, VERSION 8, 3/28/2015 INPUT READ FROM UNIT 1006
 # File generated by Flopy version 3.3.5 on 09/18/2022 at 00:27:16.
 PROCESSING GRIDDATA
 END PROCESSING GRIDDATA
 PROCESSING GRIDDATA

                ICELLTYPE = 1 FOR LAYER 1

                ICELLTYPE = 1 FOR LAYER 2

                ICELLTYPE = 0 FOR LAYER 3

                        K =  0.1000000E-04 FOR LAYER 1

                        K =  0.5000000E-03 FOR LAYER 2

                        K =  0.2000000E-03 FOR LAYER 3
 K33 not provided.  Assuming K33 = K.
 K22 not provided.  Assuming K22 = K.
 END PROCESSING GRIDDATA

 STO -- STORAGE PACKAGE, VERSION 1, 5/19/2014 INPUT READ FROM UNIT 1008


 # File generated by Flopy version 3.3.5 on 09/18/2022 at 00:27:16.
 PROCESSING STORAGE OPTIONS
 END OF STORAGE OPTIONS
 PROCESSING GRIDDATA

                 ICONVERT = 0

         SPECIFIC STORAGE =  0.1000000E-04

           SPECIFIC YIELD =  0.1500000    
 END PROCESSING GRIDDATA
    BINARY GRID INFORMATION WILL BE WRITTEN TO:
      UNIT NUMBER: 1016
      FILE NAME: D:\Proyectos_GitHub\dev_mode\examples\out\geospacial\model\geo_model.disv.grb

 OPENED D:\Proyectos_GitHub\dev_mode\examples\out\geospacial\model\geo_model.disv.grb
 FILE TYPE:DATA(BINARY)   UNIT 1016   STATUS:REPLACE             
 FORMAT:UNFORMATTED            ACCESS:STREAM              
 ACTION:READWRITE           

      THE LAST TIME STEP WILL BE PRINTED
      THE LAST TIME STEP WILL BE PRINTED
 # File generated by Flopy version 3.3.5 on 09/18/2022 at 00:27:16.

 PROCESSING OC OPTIONS

    BUDGET INFORMATION WILL BE WRITTEN TO:
      UNIT NUMBER: 1017
      FILE NAME: geo_model.cbc

 OPENED geo_model.cbc
 FILE TYPE:DATA(BINARY)   UNIT 1017   STATUS:REPLACE             
 FORMAT:UNFORMATTED            ACCESS:STREAM              
 ACTION:READWRITE           

    HEAD INFORMATION WILL BE WRITTEN TO:
      UNIT NUMBER: 1018
      FILE NAME: geo_model.hds

 OPENED geo_model.hds
 FILE TYPE:DATA(BINARY)   UNIT 1018   STATUS:REPLACE             
 FORMAT:UNFORMATTED            ACCESS:STREAM              
 ACTION:READWRITE           

 END OF OC OPTIONS

start timestep kper="1" kstp="1" mode="normal"


 BEGIN READING OUTPUT CONTROL FOR STRESS PERIOD 1
      ALL TIME STEPS WILL BE SAVED
      ALL TIME STEPS WILL BE SAVED

 END READING OUTPUT CONTROL FOR STRESS PERIOD 1


 STRESS PERIOD 1 IS TRANSIENT


      LAYER OR NODE INDEX = 2

  EVAPOTRANSPIRATION RATE =  0.3805175E-07

         EXTINCTION DEPTH =   1.000000    
 UBDSV1 SAVING           STO-SS ON UNIT   1017 AT TIME STEP      1, STRESS PERIOD      1
 UBDSV1 SAVING     FLOW-JA-FACE ON UNIT   1017 AT TIME STEP      1, STRESS PERIOD      1
 UBDSV06 SAVING       DATA-SPDIS IN MODEL GEO_MODEL        PACKAGE NPF             CONNECTED TO MODEL GEO_MODEL        PACKAGE NPF              ON UNIT   1017 AT TIME STEP      1, STRESS PERIOD      1
 UBDSV06 SAVING              WEL IN MODEL GEO_MODEL        PACKAGE GEO_MODEL       CONNECTED TO MODEL GEO_MODEL        PACKAGE WEL_0            ON UNIT   1017 AT TIME STEP      1, STRESS PERIOD      1
 UBDSV06 SAVING              RIV IN MODEL GEO_MODEL        PACKAGE GEO_MODEL       CONNECTED TO MODEL GEO_MODEL        PACKAGE RIV_0            ON UNIT   1017 AT TIME STEP      1, STRESS PERIOD      1
 UBDSV06 SAVING              GHB IN MODEL GEO_MODEL        PACKAGE GEO_MODEL       CONNECTED TO MODEL GEO_MODEL        PACKAGE GHB_0            ON UNIT   1017 AT TIME STEP      1, STRESS PERIOD      1
 UBDSV06 SAVING              RCH IN MODEL GEO_MODEL        PACKAGE GEO_MODEL       CONNECTED TO MODEL GEO_MODEL        PACKAGE RCH_0            ON UNIT   1017 AT TIME STEP      1, STRESS PERIOD      1
 UBDSV06 SAVING            EVTA  IN MODEL GEO_MODEL        PACKAGE GEO_MODEL       CONNECTED TO MODEL GEO_MODEL        PACKAGE EVTA_0           ON UNIT   1017 AT TIME STEP      1, STRESS PERIOD      1

 HEAD WILL BE SAVED ON UNIT 1018 AT END OF TIME STEP    1, STRESS PERIOD    1


  VOLUME BUDGET FOR ENTIRE MODEL AT END OF TIME STEP    1, STRESS PERIOD   1
  ---------------------------------------------------------------------------------------------------

     CUMULATIVE VOLUME      L**3       RATES FOR THIS TIME STEP      L**3/T          PACKAGE NAME    
     ------------------                 ------------------------                     ----------------

           IN:                                      IN:
           ---                                      ---
              STO-SS =         235.7383                STO-SS =         235.7383     STORAGE                          
                 WEL =           0.0000                   WEL =           0.0000     WEL_0                            
                 RIV =       3.4659E-02                   RIV =       3.4659E-02     RIV_0                            
                 GHB =           0.1391                   GHB =           0.1391     GHB_0                            
                 RCH =       3.0849E-02                   RCH =       3.0849E-02     RCH_0                            
                EVTA =           0.0000                  EVTA =           0.0000     EVTA_0                           

            TOTAL IN =         235.9429              TOTAL IN =         235.9429

          OUT:                                     OUT:
          ----                                     ----
              STO-SS =         231.5018                STO-SS =         231.5018     STORAGE                          
                 WEL =           0.0000                   WEL =           0.0000     WEL_0                            
                 RIV =       3.9883E-02                   RIV =       3.9883E-02     RIV_0                            
                 GHB =           4.2099                   GHB =           4.2099     GHB_0                            
                 RCH =           0.0000                   RCH =           0.0000     RCH_0                            
                EVTA =           0.1914                  EVTA =           0.1914     EVTA_0                           

           TOTAL OUT =         235.9429             TOTAL OUT =         235.9429

            IN - OUT =       3.5052E-07              IN - OUT =       3.5052E-07

 PERCENT DISCREPANCY =           0.00     PERCENT DISCREPANCY =           0.00




         TIME SUMMARY AT END OF TIME STEP    1 IN STRESS PERIOD    1
                    SECONDS     MINUTES      HOURS       DAYS        YEARS
                    -----------------------------------------------------------
   TIME STEP LENGTH  1.0000     1.66667E-02 2.77778E-04 1.15741E-05 3.16881E-08
 STRESS PERIOD TIME  1.0000     1.66667E-02 2.77778E-04 1.15741E-05 3.16881E-08
         TOTAL TIME  1.0000     1.66667E-02 2.77778E-04 1.15741E-05 3.16881E-08


end timestep


start timestep kper="2" kstp="1" mode="normal"


 END OF FILE DETECTED IN OUTPUT CONTROL.
 CURRENT OUTPUT CONTROL SETTINGS WILL BE 
 REPEATED UNTIL THE END OF THE SIMULATION.

 OUTPUT CONTROL FOR STRESS PERIOD 2 IS REPEATED USING SETTINGS FROM A PREVIOUS STRESS PERIOD.


 STRESS PERIOD 2 IS TRANSIENT


 REUSING RIVS FROM LAST STRESS PERIOD

 REUSING GHBS FROM LAST STRESS PERIOD

 REUSING RCHS FROM LAST STRESS PERIOD

 REUSING EVTS FROM LAST STRESS PERIOD
 UBDSV1 SAVING           STO-SS ON UNIT   1017 AT TIME STEP      1, STRESS PERIOD      2
 UBDSV1 SAVING     FLOW-JA-FACE ON UNIT   1017 AT TIME STEP      1, STRESS PERIOD      2
 UBDSV06 SAVING       DATA-SPDIS IN MODEL GEO_MODEL        PACKAGE NPF             CONNECTED TO MODEL GEO_MODEL        PACKAGE NPF              ON UNIT   1017 AT TIME STEP      1, STRESS PERIOD      2
 UBDSV06 SAVING              WEL IN MODEL GEO_MODEL        PACKAGE GEO_MODEL       CONNECTED TO MODEL GEO_MODEL        PACKAGE WEL_0            ON UNIT   1017 AT TIME STEP      1, STRESS PERIOD      2
 UBDSV06 SAVING              RIV IN MODEL GEO_MODEL        PACKAGE GEO_MODEL       CONNECTED TO MODEL GEO_MODEL        PACKAGE RIV_0            ON UNIT   1017 AT TIME STEP      1, STRESS PERIOD      2
 UBDSV06 SAVING              GHB IN MODEL GEO_MODEL        PACKAGE GEO_MODEL       CONNECTED TO MODEL GEO_MODEL        PACKAGE GHB_0            ON UNIT   1017 AT TIME STEP      1, STRESS PERIOD      2
 UBDSV06 SAVING              RCH IN MODEL GEO_MODEL        PACKAGE GEO_MODEL       CONNECTED TO MODEL GEO_MODEL        PACKAGE RCH_0            ON UNIT   1017 AT TIME STEP      1, STRESS PERIOD      2
 UBDSV06 SAVING            EVTA  IN MODEL GEO_MODEL        PACKAGE GEO_MODEL       CONNECTED TO MODEL GEO_MODEL        PACKAGE EVTA_0           ON UNIT   1017 AT TIME STEP      1, STRESS PERIOD      2

 HEAD WILL BE SAVED ON UNIT 1018 AT END OF TIME STEP    1, STRESS PERIOD    2

end timestep


start timestep kper="2" kstp="2" mode="normal"

 UBDSV1 SAVING           STO-SS ON UNIT   1017 AT TIME STEP      2, STRESS PERIOD      2
 UBDSV1 SAVING     FLOW-JA-FACE ON UNIT   1017 AT TIME STEP      2, STRESS PERIOD      2
 UBDSV06 SAVING       DATA-SPDIS IN MODEL GEO_MODEL        PACKAGE NPF             CONNECTED TO MODEL GEO_MODEL        PACKAGE NPF              ON UNIT   1017 AT TIME STEP      2, STRESS PERIOD      2
 UBDSV06 SAVING              WEL IN MODEL GEO_MODEL        PACKAGE GEO_MODEL       CONNECTED TO MODEL GEO_MODEL        PACKAGE WEL_0            ON UNIT   1017 AT TIME STEP      2, STRESS PERIOD      2
 UBDSV06 SAVING              RIV IN MODEL GEO_MODEL        PACKAGE GEO_MODEL       CONNECTED TO MODEL GEO_MODEL        PACKAGE RIV_0            ON UNIT   1017 AT TIME STEP      2, STRESS PERIOD      2
 UBDSV06 SAVING              GHB IN MODEL GEO_MODEL        PACKAGE GEO_MODEL       CONNECTED TO MODEL GEO_MODEL        PACKAGE GHB_0            ON UNIT   1017 AT TIME STEP      2, STRESS PERIOD      2
 UBDSV06 SAVING              RCH IN MODEL GEO_MODEL        PACKAGE GEO_MODEL       CONNECTED TO MODEL GEO_MODEL        PACKAGE RCH_0            ON UNIT   1017 AT TIME STEP      2, STRESS PERIOD      2
 UBDSV06 SAVING            EVTA  IN MODEL GEO_MODEL        PACKAGE GEO_MODEL       CONNECTED TO MODEL GEO_MODEL        PACKAGE EVTA_0           ON UNIT   1017 AT TIME STEP      2, STRESS PERIOD      2

 HEAD WILL BE SAVED ON UNIT 1018 AT END OF TIME STEP    2, STRESS PERIOD    2

end timestep


start timestep kper="2" kstp="3" mode="normal"

 UBDSV1 SAVING           STO-SS ON UNIT   1017 AT TIME STEP      3, STRESS PERIOD      2
 UBDSV1 SAVING     FLOW-JA-FACE ON UNIT   1017 AT TIME STEP      3, STRESS PERIOD      2
 UBDSV06 SAVING       DATA-SPDIS IN MODEL GEO_MODEL        PACKAGE NPF             CONNECTED TO MODEL GEO_MODEL        PACKAGE NPF              ON UNIT   1017 AT TIME STEP      3, STRESS PERIOD      2
 UBDSV06 SAVING              WEL IN MODEL GEO_MODEL        PACKAGE GEO_MODEL       CONNECTED TO MODEL GEO_MODEL        PACKAGE WEL_0            ON UNIT   1017 AT TIME STEP      3, STRESS PERIOD      2
 UBDSV06 SAVING              RIV IN MODEL GEO_MODEL        PACKAGE GEO_MODEL       CONNECTED TO MODEL GEO_MODEL        PACKAGE RIV_0            ON UNIT   1017 AT TIME STEP      3, STRESS PERIOD      2
 UBDSV06 SAVING              GHB IN MODEL GEO_MODEL        PACKAGE GEO_MODEL       CONNECTED TO MODEL GEO_MODEL        PACKAGE GHB_0            ON UNIT   1017 AT TIME STEP      3, STRESS PERIOD      2
 UBDSV06 SAVING              RCH IN MODEL GEO_MODEL        PACKAGE GEO_MODEL       CONNECTED TO MODEL GEO_MODEL        PACKAGE RCH_0            ON UNIT   1017 AT TIME STEP      3, STRESS PERIOD      2
 UBDSV06 SAVING            EVTA  IN MODEL GEO_MODEL        PACKAGE GEO_MODEL       CONNECTED TO MODEL GEO_MODEL        PACKAGE EVTA_0           ON UNIT   1017 AT TIME STEP      3, STRESS PERIOD      2

 HEAD WILL BE SAVED ON UNIT 1018 AT END OF TIME STEP    3, STRESS PERIOD    2

end timestep


start timestep kper="2" kstp="4" mode="normal"

 UBDSV1 SAVING           STO-SS ON UNIT   1017 AT TIME STEP      4, STRESS PERIOD      2
 UBDSV1 SAVING     FLOW-JA-FACE ON UNIT   1017 AT TIME STEP      4, STRESS PERIOD      2
 UBDSV06 SAVING       DATA-SPDIS IN MODEL GEO_MODEL        PACKAGE NPF             CONNECTED TO MODEL GEO_MODEL        PACKAGE NPF              ON UNIT   1017 AT TIME STEP      4, STRESS PERIOD      2
 UBDSV06 SAVING              WEL IN MODEL GEO_MODEL        PACKAGE GEO_MODEL       CONNECTED TO MODEL GEO_MODEL        PACKAGE WEL_0            ON UNIT   1017 AT TIME STEP      4, STRESS PERIOD      2
 UBDSV06 SAVING              RIV IN MODEL GEO_MODEL        PACKAGE GEO_MODEL       CONNECTED TO MODEL GEO_MODEL        PACKAGE RIV_0            ON UNIT   1017 AT TIME STEP      4, STRESS PERIOD      2
 UBDSV06 SAVING              GHB IN MODEL GEO_MODEL        PACKAGE GEO_MODEL       CONNECTED TO MODEL GEO_MODEL        PACKAGE GHB_0            ON UNIT   1017 AT TIME STEP      4, STRESS PERIOD      2
 UBDSV06 SAVING              RCH IN MODEL GEO_MODEL        PACKAGE GEO_MODEL       CONNECTED TO MODEL GEO_MODEL        PACKAGE RCH_0            ON UNIT   1017 AT TIME STEP      4, STRESS PERIOD      2
 UBDSV06 SAVING            EVTA  IN MODEL GEO_MODEL        PACKAGE GEO_MODEL       CONNECTED TO MODEL GEO_MODEL        PACKAGE EVTA_0           ON UNIT   1017 AT TIME STEP      4, STRESS PERIOD      2

 HEAD WILL BE SAVED ON UNIT 1018 AT END OF TIME STEP    4, STRESS PERIOD    2

end timestep


start timestep kper="2" kstp="5" mode="normal"

 UBDSV1 SAVING           STO-SS ON UNIT   1017 AT TIME STEP      5, STRESS PERIOD      2
 UBDSV1 SAVING     FLOW-JA-FACE ON UNIT   1017 AT TIME STEP      5, STRESS PERIOD      2
 UBDSV06 SAVING       DATA-SPDIS IN MODEL GEO_MODEL        PACKAGE NPF             CONNECTED TO MODEL GEO_MODEL        PACKAGE NPF              ON UNIT   1017 AT TIME STEP      5, STRESS PERIOD      2
 UBDSV06 SAVING              WEL IN MODEL GEO_MODEL        PACKAGE GEO_MODEL       CONNECTED TO MODEL GEO_MODEL        PACKAGE WEL_0            ON UNIT   1017 AT TIME STEP      5, STRESS PERIOD      2
 UBDSV06 SAVING              RIV IN MODEL GEO_MODEL        PACKAGE GEO_MODEL       CONNECTED TO MODEL GEO_MODEL        PACKAGE RIV_0            ON UNIT   1017 AT TIME STEP      5, STRESS PERIOD      2
 UBDSV06 SAVING              GHB IN MODEL GEO_MODEL        PACKAGE GEO_MODEL       CONNECTED TO MODEL GEO_MODEL        PACKAGE GHB_0            ON UNIT   1017 AT TIME STEP      5, STRESS PERIOD      2
 UBDSV06 SAVING              RCH IN MODEL GEO_MODEL        PACKAGE GEO_MODEL       CONNECTED TO MODEL GEO_MODEL        PACKAGE RCH_0            ON UNIT   1017 AT TIME STEP      5, STRESS PERIOD      2
 UBDSV06 SAVING            EVTA  IN MODEL GEO_MODEL        PACKAGE GEO_MODEL       CONNECTED TO MODEL GEO_MODEL        PACKAGE EVTA_0           ON UNIT   1017 AT TIME STEP      5, STRESS PERIOD      2

 HEAD WILL BE SAVED ON UNIT 1018 AT END OF TIME STEP    5, STRESS PERIOD    2

end timestep


start timestep kper="2" kstp="6" mode="normal"

 UBDSV1 SAVING           STO-SS ON UNIT   1017 AT TIME STEP      6, STRESS PERIOD      2
 UBDSV1 SAVING     FLOW-JA-FACE ON UNIT   1017 AT TIME STEP      6, STRESS PERIOD      2
 UBDSV06 SAVING       DATA-SPDIS IN MODEL GEO_MODEL        PACKAGE NPF             CONNECTED TO MODEL GEO_MODEL        PACKAGE NPF              ON UNIT   1017 AT TIME STEP      6, STRESS PERIOD      2
 UBDSV06 SAVING              WEL IN MODEL GEO_MODEL        PACKAGE GEO_MODEL       CONNECTED TO MODEL GEO_MODEL        PACKAGE WEL_0            ON UNIT   1017 AT TIME STEP      6, STRESS PERIOD      2
 UBDSV06 SAVING              RIV IN MODEL GEO_MODEL        PACKAGE GEO_MODEL       CONNECTED TO MODEL GEO_MODEL        PACKAGE RIV_0            ON UNIT   1017 AT TIME STEP      6, STRESS PERIOD      2
 UBDSV06 SAVING              GHB IN MODEL GEO_MODEL        PACKAGE GEO_MODEL       CONNECTED TO MODEL GEO_MODEL        PACKAGE GHB_0            ON UNIT   1017 AT TIME STEP      6, STRESS PERIOD      2
 UBDSV06 SAVING              RCH IN MODEL GEO_MODEL        PACKAGE GEO_MODEL       CONNECTED TO MODEL GEO_MODEL        PACKAGE RCH_0            ON UNIT   1017 AT TIME STEP      6, STRESS PERIOD      2
 UBDSV06 SAVING            EVTA  IN MODEL GEO_MODEL        PACKAGE GEO_MODEL       CONNECTED TO MODEL GEO_MODEL        PACKAGE EVTA_0           ON UNIT   1017 AT TIME STEP      6, STRESS PERIOD      2

 HEAD WILL BE SAVED ON UNIT 1018 AT END OF TIME STEP    6, STRESS PERIOD    2

end timestep


start timestep kper="2" kstp="7" mode="normal"

 UBDSV1 SAVING           STO-SS ON UNIT   1017 AT TIME STEP      7, STRESS PERIOD      2
 UBDSV1 SAVING     FLOW-JA-FACE ON UNIT   1017 AT TIME STEP      7, STRESS PERIOD      2
 UBDSV06 SAVING       DATA-SPDIS IN MODEL GEO_MODEL        PACKAGE NPF             CONNECTED TO MODEL GEO_MODEL        PACKAGE NPF              ON UNIT   1017 AT TIME STEP      7, STRESS PERIOD      2
 UBDSV06 SAVING              WEL IN MODEL GEO_MODEL        PACKAGE GEO_MODEL       CONNECTED TO MODEL GEO_MODEL        PACKAGE WEL_0            ON UNIT   1017 AT TIME STEP      7, STRESS PERIOD      2
 UBDSV06 SAVING              RIV IN MODEL GEO_MODEL        PACKAGE GEO_MODEL       CONNECTED TO MODEL GEO_MODEL        PACKAGE RIV_0            ON UNIT   1017 AT TIME STEP      7, STRESS PERIOD      2
 UBDSV06 SAVING              GHB IN MODEL GEO_MODEL        PACKAGE GEO_MODEL       CONNECTED TO MODEL GEO_MODEL        PACKAGE GHB_0            ON UNIT   1017 AT TIME STEP      7, STRESS PERIOD      2
 UBDSV06 SAVING              RCH IN MODEL GEO_MODEL        PACKAGE GEO_MODEL       CONNECTED TO MODEL GEO_MODEL        PACKAGE RCH_0            ON UNIT   1017 AT TIME STEP      7, STRESS PERIOD      2
 UBDSV06 SAVING            EVTA  IN MODEL GEO_MODEL        PACKAGE GEO_MODEL       CONNECTED TO MODEL GEO_MODEL        PACKAGE EVTA_0           ON UNIT   1017 AT TIME STEP      7, STRESS PERIOD      2

 HEAD WILL BE SAVED ON UNIT 1018 AT END OF TIME STEP    7, STRESS PERIOD    2

end timestep


start timestep kper="2" kstp="8" mode="normal"

 UBDSV1 SAVING           STO-SS ON UNIT   1017 AT TIME STEP      8, STRESS PERIOD      2
 UBDSV1 SAVING     FLOW-JA-FACE ON UNIT   1017 AT TIME STEP      8, STRESS PERIOD      2
 UBDSV06 SAVING       DATA-SPDIS IN MODEL GEO_MODEL        PACKAGE NPF             CONNECTED TO MODEL GEO_MODEL        PACKAGE NPF              ON UNIT   1017 AT TIME STEP      8, STRESS PERIOD      2
 UBDSV06 SAVING              WEL IN MODEL GEO_MODEL        PACKAGE GEO_MODEL       CONNECTED TO MODEL GEO_MODEL        PACKAGE WEL_0            ON UNIT   1017 AT TIME STEP      8, STRESS PERIOD      2
 UBDSV06 SAVING              RIV IN MODEL GEO_MODEL        PACKAGE GEO_MODEL       CONNECTED TO MODEL GEO_MODEL        PACKAGE RIV_0            ON UNIT   1017 AT TIME STEP      8, STRESS PERIOD      2
 UBDSV06 SAVING              GHB IN MODEL GEO_MODEL        PACKAGE GEO_MODEL       CONNECTED TO MODEL GEO_MODEL        PACKAGE GHB_0            ON UNIT   1017 AT TIME STEP      8, STRESS PERIOD      2
 UBDSV06 SAVING              RCH IN MODEL GEO_MODEL        PACKAGE GEO_MODEL       CONNECTED TO MODEL GEO_MODEL        PACKAGE RCH_0            ON UNIT   1017 AT TIME STEP      8, STRESS PERIOD      2
 UBDSV06 SAVING            EVTA  IN MODEL GEO_MODEL        PACKAGE GEO_MODEL       CONNECTED TO MODEL GEO_MODEL        PACKAGE EVTA_0           ON UNIT   1017 AT TIME STEP      8, STRESS PERIOD      2

 HEAD WILL BE SAVED ON UNIT 1018 AT END OF TIME STEP    8, STRESS PERIOD    2

end timestep


start timestep kper="2" kstp="9" mode="normal"

 UBDSV1 SAVING           STO-SS ON UNIT   1017 AT TIME STEP      9, STRESS PERIOD      2
 UBDSV1 SAVING     FLOW-JA-FACE ON UNIT   1017 AT TIME STEP      9, STRESS PERIOD      2
 UBDSV06 SAVING       DATA-SPDIS IN MODEL GEO_MODEL        PACKAGE NPF             CONNECTED TO MODEL GEO_MODEL        PACKAGE NPF              ON UNIT   1017 AT TIME STEP      9, STRESS PERIOD      2
 UBDSV06 SAVING              WEL IN MODEL GEO_MODEL        PACKAGE GEO_MODEL       CONNECTED TO MODEL GEO_MODEL        PACKAGE WEL_0            ON UNIT   1017 AT TIME STEP      9, STRESS PERIOD      2
 UBDSV06 SAVING              RIV IN MODEL GEO_MODEL        PACKAGE GEO_MODEL       CONNECTED TO MODEL GEO_MODEL        PACKAGE RIV_0            ON UNIT   1017 AT TIME STEP      9, STRESS PERIOD      2
 UBDSV06 SAVING              GHB IN MODEL GEO_MODEL        PACKAGE GEO_MODEL       CONNECTED TO MODEL GEO_MODEL        PACKAGE GHB_0            ON UNIT   1017 AT TIME STEP      9, STRESS PERIOD      2
 UBDSV06 SAVING              RCH IN MODEL GEO_MODEL        PACKAGE GEO_MODEL       CONNECTED TO MODEL GEO_MODEL        PACKAGE RCH_0            ON UNIT   1017 AT TIME STEP      9, STRESS PERIOD      2
 UBDSV06 SAVING            EVTA  IN MODEL GEO_MODEL        PACKAGE GEO_MODEL       CONNECTED TO MODEL GEO_MODEL        PACKAGE EVTA_0           ON UNIT   1017 AT TIME STEP      9, STRESS PERIOD      2

 HEAD WILL BE SAVED ON UNIT 1018 AT END OF TIME STEP    9, STRESS PERIOD    2

end timestep


start timestep kper="2" kstp="10" mode="normal"

 UBDSV1 SAVING           STO-SS ON UNIT   1017 AT TIME STEP     10, STRESS PERIOD      2
 UBDSV1 SAVING     FLOW-JA-FACE ON UNIT   1017 AT TIME STEP     10, STRESS PERIOD      2
 UBDSV06 SAVING       DATA-SPDIS IN MODEL GEO_MODEL        PACKAGE NPF             CONNECTED TO MODEL GEO_MODEL        PACKAGE NPF              ON UNIT   1017 AT TIME STEP     10, STRESS PERIOD      2
 UBDSV06 SAVING              WEL IN MODEL GEO_MODEL        PACKAGE GEO_MODEL       CONNECTED TO MODEL GEO_MODEL        PACKAGE WEL_0            ON UNIT   1017 AT TIME STEP     10, STRESS PERIOD      2
 UBDSV06 SAVING              RIV IN MODEL GEO_MODEL        PACKAGE GEO_MODEL       CONNECTED TO MODEL GEO_MODEL        PACKAGE RIV_0            ON UNIT   1017 AT TIME STEP     10, STRESS PERIOD      2
 UBDSV06 SAVING              GHB IN MODEL GEO_MODEL        PACKAGE GEO_MODEL       CONNECTED TO MODEL GEO_MODEL        PACKAGE GHB_0            ON UNIT   1017 AT TIME STEP     10, STRESS PERIOD      2
 UBDSV06 SAVING              RCH IN MODEL GEO_MODEL        PACKAGE GEO_MODEL       CONNECTED TO MODEL GEO_MODEL        PACKAGE RCH_0            ON UNIT   1017 AT TIME STEP     10, STRESS PERIOD      2
 UBDSV06 SAVING            EVTA  IN MODEL GEO_MODEL        PACKAGE GEO_MODEL       CONNECTED TO MODEL GEO_MODEL        PACKAGE EVTA_0           ON UNIT   1017 AT TIME STEP     10, STRESS PERIOD      2

 HEAD WILL BE SAVED ON UNIT 1018 AT END OF TIME STEP   10, STRESS PERIOD    2


  VOLUME BUDGET FOR ENTIRE MODEL AT END OF TIME STEP   10, STRESS PERIOD   2
  ---------------------------------------------------------------------------------------------------

     CUMULATIVE VOLUME      L**3       RATES FOR THIS TIME STEP      L**3/T          PACKAGE NAME    
     ------------------                 ------------------------                     ----------------

           IN:                                      IN:
           ---                                      ---
              STO-SS =       90921.2107                STO-SS =       2.1140E-07     STORAGE                          
                 WEL =           0.0000                   WEL =           0.0000     WEL_0                            
                 RIV =    13503238.1671                   RIV =           0.7836     RIV_0                            
                 GHB =     8057789.2023                   GHB =           0.4674     GHB_0                            
                 RCH =      533068.0646                   RCH =       3.0849E-02     RCH_0                            
                EVTA =           0.0000                  EVTA =           0.0000     EVTA_0                           

            TOTAL IN =    22185016.6446              TOTAL IN =           1.2819

          OUT:                                     OUT:
          ----                                     ----
              STO-SS =        1699.6107                STO-SS =       1.8046E-10     STORAGE                          
                 WEL =     7776000.0000                   WEL =           0.4500     WEL_0                            
                 RIV =     6095400.5734                   RIV =           0.3515     RIV_0                            
                 GHB =     8032741.3857                   GHB =           0.4642     GHB_0                            
                 RCH =           0.0000                   RCH =           0.0000     RCH_0                            
                EVTA =      292559.4940                  EVTA =       1.6827E-02     EVTA_0                           

           TOTAL OUT =    22198401.0637             TOTAL OUT =           1.2825

            IN - OUT =      -13384.4191              IN - OUT =      -5.1613E-04

 PERCENT DISCREPANCY =          -0.06     PERCENT DISCREPANCY =          -0.04




         TIME SUMMARY AT END OF TIME STEP   10 IN STRESS PERIOD    2
                    SECONDS     MINUTES      HOURS       DAYS        YEARS
                    -----------------------------------------------------------
   TIME STEP LENGTH 1.72800E+06  28800.      480.00      20.000     5.47570E-02
 STRESS PERIOD TIME 1.72800E+07 2.88000E+05  4800.0      200.00     0.54757    
         TOTAL TIME 1.72800E+07 2.88000E+05  4800.0      200.00     0.54757    


end timestep


start timestep kper="3" kstp="1" mode="normal"


 OUTPUT CONTROL FOR STRESS PERIOD 3 IS REPEATED USING SETTINGS FROM A PREVIOUS STRESS PERIOD.


 STRESS PERIOD 3 IS TRANSIENT


 REUSING RIVS FROM LAST STRESS PERIOD

 REUSING GHBS FROM LAST STRESS PERIOD

 REUSING RCHS FROM LAST STRESS PERIOD

 REUSING EVTS FROM LAST STRESS PERIOD
 UBDSV1 SAVING           STO-SS ON UNIT   1017 AT TIME STEP      1, STRESS PERIOD      3
 UBDSV1 SAVING     FLOW-JA-FACE ON UNIT   1017 AT TIME STEP      1, STRESS PERIOD      3
 UBDSV06 SAVING       DATA-SPDIS IN MODEL GEO_MODEL        PACKAGE NPF             CONNECTED TO MODEL GEO_MODEL        PACKAGE NPF              ON UNIT   1017 AT TIME STEP      1, STRESS PERIOD      3
 UBDSV06 SAVING              WEL IN MODEL GEO_MODEL        PACKAGE GEO_MODEL       CONNECTED TO MODEL GEO_MODEL        PACKAGE WEL_0            ON UNIT   1017 AT TIME STEP      1, STRESS PERIOD      3
 UBDSV06 SAVING              RIV IN MODEL GEO_MODEL        PACKAGE GEO_MODEL       CONNECTED TO MODEL GEO_MODEL        PACKAGE RIV_0            ON UNIT   1017 AT TIME STEP      1, STRESS PERIOD      3
 UBDSV06 SAVING              GHB IN MODEL GEO_MODEL        PACKAGE GEO_MODEL       CONNECTED TO MODEL GEO_MODEL        PACKAGE GHB_0            ON UNIT   1017 AT TIME STEP      1, STRESS PERIOD      3
 UBDSV06 SAVING              RCH IN MODEL GEO_MODEL        PACKAGE GEO_MODEL       CONNECTED TO MODEL GEO_MODEL        PACKAGE RCH_0            ON UNIT   1017 AT TIME STEP      1, STRESS PERIOD      3
 UBDSV06 SAVING            EVTA  IN MODEL GEO_MODEL        PACKAGE GEO_MODEL       CONNECTED TO MODEL GEO_MODEL        PACKAGE EVTA_0           ON UNIT   1017 AT TIME STEP      1, STRESS PERIOD      3

 HEAD WILL BE SAVED ON UNIT 1018 AT END OF TIME STEP    1, STRESS PERIOD    3

end timestep


start timestep kper="3" kstp="2" mode="normal"

 UBDSV1 SAVING           STO-SS ON UNIT   1017 AT TIME STEP      2, STRESS PERIOD      3
 UBDSV1 SAVING     FLOW-JA-FACE ON UNIT   1017 AT TIME STEP      2, STRESS PERIOD      3
 UBDSV06 SAVING       DATA-SPDIS IN MODEL GEO_MODEL        PACKAGE NPF             CONNECTED TO MODEL GEO_MODEL        PACKAGE NPF              ON UNIT   1017 AT TIME STEP      2, STRESS PERIOD      3
 UBDSV06 SAVING              WEL IN MODEL GEO_MODEL        PACKAGE GEO_MODEL       CONNECTED TO MODEL GEO_MODEL        PACKAGE WEL_0            ON UNIT   1017 AT TIME STEP      2, STRESS PERIOD      3
 UBDSV06 SAVING              RIV IN MODEL GEO_MODEL        PACKAGE GEO_MODEL       CONNECTED TO MODEL GEO_MODEL        PACKAGE RIV_0            ON UNIT   1017 AT TIME STEP      2, STRESS PERIOD      3
 UBDSV06 SAVING              GHB IN MODEL GEO_MODEL        PACKAGE GEO_MODEL       CONNECTED TO MODEL GEO_MODEL        PACKAGE GHB_0            ON UNIT   1017 AT TIME STEP      2, STRESS PERIOD      3
 UBDSV06 SAVING              RCH IN MODEL GEO_MODEL        PACKAGE GEO_MODEL       CONNECTED TO MODEL GEO_MODEL        PACKAGE RCH_0            ON UNIT   1017 AT TIME STEP      2, STRESS PERIOD      3
 UBDSV06 SAVING            EVTA  IN MODEL GEO_MODEL        PACKAGE GEO_MODEL       CONNECTED TO MODEL GEO_MODEL        PACKAGE EVTA_0           ON UNIT   1017 AT TIME STEP      2, STRESS PERIOD      3

 HEAD WILL BE SAVED ON UNIT 1018 AT END OF TIME STEP    2, STRESS PERIOD    3

end timestep


start timestep kper="3" kstp="3" mode="normal"

 UBDSV1 SAVING           STO-SS ON UNIT   1017 AT TIME STEP      3, STRESS PERIOD      3
 UBDSV1 SAVING     FLOW-JA-FACE ON UNIT   1017 AT TIME STEP      3, STRESS PERIOD      3
 UBDSV06 SAVING       DATA-SPDIS IN MODEL GEO_MODEL        PACKAGE NPF             CONNECTED TO MODEL GEO_MODEL        PACKAGE NPF              ON UNIT   1017 AT TIME STEP      3, STRESS PERIOD      3
 UBDSV06 SAVING              WEL IN MODEL GEO_MODEL        PACKAGE GEO_MODEL       CONNECTED TO MODEL GEO_MODEL        PACKAGE WEL_0            ON UNIT   1017 AT TIME STEP      3, STRESS PERIOD      3
 UBDSV06 SAVING              RIV IN MODEL GEO_MODEL        PACKAGE GEO_MODEL       CONNECTED TO MODEL GEO_MODEL        PACKAGE RIV_0            ON UNIT   1017 AT TIME STEP      3, STRESS PERIOD      3
 UBDSV06 SAVING              GHB IN MODEL GEO_MODEL        PACKAGE GEO_MODEL       CONNECTED TO MODEL GEO_MODEL        PACKAGE GHB_0            ON UNIT   1017 AT TIME STEP      3, STRESS PERIOD      3
 UBDSV06 SAVING              RCH IN MODEL GEO_MODEL        PACKAGE GEO_MODEL       CONNECTED TO MODEL GEO_MODEL        PACKAGE RCH_0            ON UNIT   1017 AT TIME STEP      3, STRESS PERIOD      3
 UBDSV06 SAVING            EVTA  IN MODEL GEO_MODEL        PACKAGE GEO_MODEL       CONNECTED TO MODEL GEO_MODEL        PACKAGE EVTA_0           ON UNIT   1017 AT TIME STEP      3, STRESS PERIOD      3

 HEAD WILL BE SAVED ON UNIT 1018 AT END OF TIME STEP    3, STRESS PERIOD    3

end timestep


start timestep kper="3" kstp="4" mode="normal"

 UBDSV1 SAVING           STO-SS ON UNIT   1017 AT TIME STEP      4, STRESS PERIOD      3
 UBDSV1 SAVING     FLOW-JA-FACE ON UNIT   1017 AT TIME STEP      4, STRESS PERIOD      3
 UBDSV06 SAVING       DATA-SPDIS IN MODEL GEO_MODEL        PACKAGE NPF             CONNECTED TO MODEL GEO_MODEL        PACKAGE NPF              ON UNIT   1017 AT TIME STEP      4, STRESS PERIOD      3
 UBDSV06 SAVING              WEL IN MODEL GEO_MODEL        PACKAGE GEO_MODEL       CONNECTED TO MODEL GEO_MODEL        PACKAGE WEL_0            ON UNIT   1017 AT TIME STEP      4, STRESS PERIOD      3
 UBDSV06 SAVING              RIV IN MODEL GEO_MODEL        PACKAGE GEO_MODEL       CONNECTED TO MODEL GEO_MODEL        PACKAGE RIV_0            ON UNIT   1017 AT TIME STEP      4, STRESS PERIOD      3
 UBDSV06 SAVING              GHB IN MODEL GEO_MODEL        PACKAGE GEO_MODEL       CONNECTED TO MODEL GEO_MODEL        PACKAGE GHB_0            ON UNIT   1017 AT TIME STEP      4, STRESS PERIOD      3
 UBDSV06 SAVING              RCH IN MODEL GEO_MODEL        PACKAGE GEO_MODEL       CONNECTED TO MODEL GEO_MODEL        PACKAGE RCH_0            ON UNIT   1017 AT TIME STEP      4, STRESS PERIOD      3
 UBDSV06 SAVING            EVTA  IN MODEL GEO_MODEL        PACKAGE GEO_MODEL       CONNECTED TO MODEL GEO_MODEL        PACKAGE EVTA_0           ON UNIT   1017 AT TIME STEP      4, STRESS PERIOD      3

 HEAD WILL BE SAVED ON UNIT 1018 AT END OF TIME STEP    4, STRESS PERIOD    3


  VOLUME BUDGET FOR ENTIRE MODEL AT END OF TIME STEP    4, STRESS PERIOD   3
  ---------------------------------------------------------------------------------------------------

     CUMULATIVE VOLUME      L**3       RATES FOR THIS TIME STEP      L**3/T          PACKAGE NAME    
     ------------------                 ------------------------                     ----------------

           IN:                                      IN:
           ---                                      ---
              STO-SS =       90921.3580                STO-SS =       1.9050E-08     STORAGE                          
                 WEL =           0.0000                   WEL =           0.0000     WEL_0                            
                 RIV =    23966678.5095                   RIV =           0.6051     RIV_0                            
                 GHB =    15249287.3331                   GHB =           0.4160     GHB_0                            
                 RCH =     1066136.0983                   RCH =       3.0849E-02     RCH_0                            
                EVTA =           0.0000                  EVTA =           0.0000     EVTA_0                           

            TOTAL IN =    40373023.2990              TOTAL IN =           1.0520

          OUT:                                     OUT:
          ----                                     ----
              STO-SS =       25592.8257                STO-SS =       3.2079E-08     STORAGE                          
                 WEL =     7776000.0000                   WEL =           0.0000     WEL_0                            
                 RIV =    14631176.7211                   RIV =           0.4943     RIV_0                            
                 GHB =    17072759.6352                   GHB =           0.5233     GHB_0                            
                 RCH =           0.0000                   RCH =           0.0000     RCH_0                            
                EVTA =      882017.9341                  EVTA =       3.4170E-02     EVTA_0                           

           TOTAL OUT =    40387547.1160             TOTAL OUT =           1.0519

            IN - OUT =      -14523.8171              IN - OUT =       1.6244E-04

 PERCENT DISCREPANCY =          -0.04     PERCENT DISCREPANCY =           0.02




         TIME SUMMARY AT END OF TIME STEP    4 IN STRESS PERIOD    3
                    SECONDS     MINUTES      HOURS       DAYS        YEARS
                    -----------------------------------------------------------
   TIME STEP LENGTH 4.32000E+06  72000.      1200.0      50.000     0.13689    
 STRESS PERIOD TIME 1.72800E+07 2.88000E+05  4800.0      200.00     0.54757    
         TOTAL TIME 3.45600E+07 5.76000E+05  9600.0      400.00      1.0951    


end timestep


start timestep kper="4" kstp="1" mode="normal"


 OUTPUT CONTROL FOR STRESS PERIOD 4 IS REPEATED USING SETTINGS FROM A PREVIOUS STRESS PERIOD.


 STRESS PERIOD 4 IS TRANSIENT


 REUSING RIVS FROM LAST STRESS PERIOD

 REUSING GHBS FROM LAST STRESS PERIOD

 REUSING RCHS FROM LAST STRESS PERIOD

 REUSING EVTS FROM LAST STRESS PERIOD
 UBDSV1 SAVING           STO-SS ON UNIT   1017 AT TIME STEP      1, STRESS PERIOD      4
 UBDSV1 SAVING     FLOW-JA-FACE ON UNIT   1017 AT TIME STEP      1, STRESS PERIOD      4
 UBDSV06 SAVING       DATA-SPDIS IN MODEL GEO_MODEL        PACKAGE NPF             CONNECTED TO MODEL GEO_MODEL        PACKAGE NPF              ON UNIT   1017 AT TIME STEP      1, STRESS PERIOD      4
 UBDSV06 SAVING              WEL IN MODEL GEO_MODEL        PACKAGE GEO_MODEL       CONNECTED TO MODEL GEO_MODEL        PACKAGE WEL_0            ON UNIT   1017 AT TIME STEP      1, STRESS PERIOD      4
 UBDSV06 SAVING              RIV IN MODEL GEO_MODEL        PACKAGE GEO_MODEL       CONNECTED TO MODEL GEO_MODEL        PACKAGE RIV_0            ON UNIT   1017 AT TIME STEP      1, STRESS PERIOD      4
 UBDSV06 SAVING              GHB IN MODEL GEO_MODEL        PACKAGE GEO_MODEL       CONNECTED TO MODEL GEO_MODEL        PACKAGE GHB_0            ON UNIT   1017 AT TIME STEP      1, STRESS PERIOD      4
 UBDSV06 SAVING              RCH IN MODEL GEO_MODEL        PACKAGE GEO_MODEL       CONNECTED TO MODEL GEO_MODEL        PACKAGE RCH_0            ON UNIT   1017 AT TIME STEP      1, STRESS PERIOD      4
 UBDSV06 SAVING            EVTA  IN MODEL GEO_MODEL        PACKAGE GEO_MODEL       CONNECTED TO MODEL GEO_MODEL        PACKAGE EVTA_0           ON UNIT   1017 AT TIME STEP      1, STRESS PERIOD      4

 HEAD WILL BE SAVED ON UNIT 1018 AT END OF TIME STEP    1, STRESS PERIOD    4

end timestep


start timestep kper="4" kstp="2" mode="normal"

 UBDSV1 SAVING           STO-SS ON UNIT   1017 AT TIME STEP      2, STRESS PERIOD      4
 UBDSV1 SAVING     FLOW-JA-FACE ON UNIT   1017 AT TIME STEP      2, STRESS PERIOD      4
 UBDSV06 SAVING       DATA-SPDIS IN MODEL GEO_MODEL        PACKAGE NPF             CONNECTED TO MODEL GEO_MODEL        PACKAGE NPF              ON UNIT   1017 AT TIME STEP      2, STRESS PERIOD      4
 UBDSV06 SAVING              WEL IN MODEL GEO_MODEL        PACKAGE GEO_MODEL       CONNECTED TO MODEL GEO_MODEL        PACKAGE WEL_0            ON UNIT   1017 AT TIME STEP      2, STRESS PERIOD      4
 UBDSV06 SAVING              RIV IN MODEL GEO_MODEL        PACKAGE GEO_MODEL       CONNECTED TO MODEL GEO_MODEL        PACKAGE RIV_0            ON UNIT   1017 AT TIME STEP      2, STRESS PERIOD      4
 UBDSV06 SAVING              GHB IN MODEL GEO_MODEL        PACKAGE GEO_MODEL       CONNECTED TO MODEL GEO_MODEL        PACKAGE GHB_0            ON UNIT   1017 AT TIME STEP      2, STRESS PERIOD      4
 UBDSV06 SAVING              RCH IN MODEL GEO_MODEL        PACKAGE GEO_MODEL       CONNECTED TO MODEL GEO_MODEL        PACKAGE RCH_0            ON UNIT   1017 AT TIME STEP      2, STRESS PERIOD      4
 UBDSV06 SAVING            EVTA  IN MODEL GEO_MODEL        PACKAGE GEO_MODEL       CONNECTED TO MODEL GEO_MODEL        PACKAGE EVTA_0           ON UNIT   1017 AT TIME STEP      2, STRESS PERIOD      4

 HEAD WILL BE SAVED ON UNIT 1018 AT END OF TIME STEP    2, STRESS PERIOD    4

end timestep


start timestep kper="4" kstp="3" mode="normal"

 UBDSV1 SAVING           STO-SS ON UNIT   1017 AT TIME STEP      3, STRESS PERIOD      4
 UBDSV1 SAVING     FLOW-JA-FACE ON UNIT   1017 AT TIME STEP      3, STRESS PERIOD      4
 UBDSV06 SAVING       DATA-SPDIS IN MODEL GEO_MODEL        PACKAGE NPF             CONNECTED TO MODEL GEO_MODEL        PACKAGE NPF              ON UNIT   1017 AT TIME STEP      3, STRESS PERIOD      4
 UBDSV06 SAVING              WEL IN MODEL GEO_MODEL        PACKAGE GEO_MODEL       CONNECTED TO MODEL GEO_MODEL        PACKAGE WEL_0            ON UNIT   1017 AT TIME STEP      3, STRESS PERIOD      4
 UBDSV06 SAVING              RIV IN MODEL GEO_MODEL        PACKAGE GEO_MODEL       CONNECTED TO MODEL GEO_MODEL        PACKAGE RIV_0            ON UNIT   1017 AT TIME STEP      3, STRESS PERIOD      4
 UBDSV06 SAVING              GHB IN MODEL GEO_MODEL        PACKAGE GEO_MODEL       CONNECTED TO MODEL GEO_MODEL        PACKAGE GHB_0            ON UNIT   1017 AT TIME STEP      3, STRESS PERIOD      4
 UBDSV06 SAVING              RCH IN MODEL GEO_MODEL        PACKAGE GEO_MODEL       CONNECTED TO MODEL GEO_MODEL        PACKAGE RCH_0            ON UNIT   1017 AT TIME STEP      3, STRESS PERIOD      4
 UBDSV06 SAVING            EVTA  IN MODEL GEO_MODEL        PACKAGE GEO_MODEL       CONNECTED TO MODEL GEO_MODEL        PACKAGE EVTA_0           ON UNIT   1017 AT TIME STEP      3, STRESS PERIOD      4

 HEAD WILL BE SAVED ON UNIT 1018 AT END OF TIME STEP    3, STRESS PERIOD    4

end timestep


start timestep kper="4" kstp="4" mode="normal"

 UBDSV1 SAVING           STO-SS ON UNIT   1017 AT TIME STEP      4, STRESS PERIOD      4
 UBDSV1 SAVING     FLOW-JA-FACE ON UNIT   1017 AT TIME STEP      4, STRESS PERIOD      4
 UBDSV06 SAVING       DATA-SPDIS IN MODEL GEO_MODEL        PACKAGE NPF             CONNECTED TO MODEL GEO_MODEL        PACKAGE NPF              ON UNIT   1017 AT TIME STEP      4, STRESS PERIOD      4
 UBDSV06 SAVING              WEL IN MODEL GEO_MODEL        PACKAGE GEO_MODEL       CONNECTED TO MODEL GEO_MODEL        PACKAGE WEL_0            ON UNIT   1017 AT TIME STEP      4, STRESS PERIOD      4
 UBDSV06 SAVING              RIV IN MODEL GEO_MODEL        PACKAGE GEO_MODEL       CONNECTED TO MODEL GEO_MODEL        PACKAGE RIV_0            ON UNIT   1017 AT TIME STEP      4, STRESS PERIOD      4
 UBDSV06 SAVING              GHB IN MODEL GEO_MODEL        PACKAGE GEO_MODEL       CONNECTED TO MODEL GEO_MODEL        PACKAGE GHB_0            ON UNIT   1017 AT TIME STEP      4, STRESS PERIOD      4
 UBDSV06 SAVING              RCH IN MODEL GEO_MODEL        PACKAGE GEO_MODEL       CONNECTED TO MODEL GEO_MODEL        PACKAGE RCH_0            ON UNIT   1017 AT TIME STEP      4, STRESS PERIOD      4
 UBDSV06 SAVING            EVTA  IN MODEL GEO_MODEL        PACKAGE GEO_MODEL       CONNECTED TO MODEL GEO_MODEL        PACKAGE EVTA_0           ON UNIT   1017 AT TIME STEP      4, STRESS PERIOD      4

 HEAD WILL BE SAVED ON UNIT 1018 AT END OF TIME STEP    4, STRESS PERIOD    4


  VOLUME BUDGET FOR ENTIRE MODEL AT END OF TIME STEP    4, STRESS PERIOD   4
  ---------------------------------------------------------------------------------------------------

     CUMULATIVE VOLUME      L**3       RATES FOR THIS TIME STEP      L**3/T          PACKAGE NAME    
     ------------------                 ------------------------                     ----------------

           IN:                                      IN:
           ---                                      ---
              STO-SS =      114812.2207                STO-SS =       6.7762E-08     STORAGE                          
                 WEL =           0.0000                   WEL =           0.0000     WEL_0                            
                 RIV =    37497966.9934                   RIV =           0.7836     RIV_0                            
                 GHB =    23322490.1201                   GHB =           0.4674     GHB_0                            
                 RCH =     1599204.1320                   RCH =       3.0849E-02     RCH_0                            
                EVTA =           0.0000                  EVTA =           0.0000     EVTA_0                           

            TOTAL IN =    62534473.4662              TOTAL IN =           1.2818

          OUT:                                     OUT:
          ----                                     ----
              STO-SS =       25592.9320                STO-SS =       6.1390E-09     STORAGE                          
                 WEL =    15552000.0000                   WEL =           0.4500     WEL_0                            
                 RIV =    20710601.0232                   RIV =           0.3515     RIV_0                            
                 GHB =    25096619.1177                   GHB =           0.4642     GHB_0                            
                 RCH =           0.0000                   RCH =           0.0000     RCH_0                            
                EVTA =     1173263.3170                  EVTA =       1.6827E-02     EVTA_0                           

           TOTAL OUT =    62558076.3899             TOTAL OUT =           1.2825

            IN - OUT =      -23602.9237              IN - OUT =      -6.1852E-04

 PERCENT DISCREPANCY =          -0.04     PERCENT DISCREPANCY =          -0.05




         TIME SUMMARY AT END OF TIME STEP    4 IN STRESS PERIOD    4
                    SECONDS     MINUTES      HOURS       DAYS        YEARS
                    -----------------------------------------------------------
   TIME STEP LENGTH 4.32000E+06  72000.      1200.0      50.000     0.13689    
 STRESS PERIOD TIME 1.72800E+07 2.88000E+05  4800.0      200.00     0.54757    
         TOTAL TIME 5.18400E+07 8.64000E+05  14400.      600.00      1.6427    


end timestep


start timestep kper="5" kstp="1" mode="normal"


 OUTPUT CONTROL FOR STRESS PERIOD 5 IS REPEATED USING SETTINGS FROM A PREVIOUS STRESS PERIOD.


 STRESS PERIOD 5 IS TRANSIENT


 REUSING RIVS FROM LAST STRESS PERIOD

 REUSING GHBS FROM LAST STRESS PERIOD

 REUSING RCHS FROM LAST STRESS PERIOD

 REUSING EVTS FROM LAST STRESS PERIOD
 UBDSV1 SAVING           STO-SS ON UNIT   1017 AT TIME STEP      1, STRESS PERIOD      5
 UBDSV1 SAVING     FLOW-JA-FACE ON UNIT   1017 AT TIME STEP      1, STRESS PERIOD      5
 UBDSV06 SAVING       DATA-SPDIS IN MODEL GEO_MODEL        PACKAGE NPF             CONNECTED TO MODEL GEO_MODEL        PACKAGE NPF              ON UNIT   1017 AT TIME STEP      1, STRESS PERIOD      5
 UBDSV06 SAVING              WEL IN MODEL GEO_MODEL        PACKAGE GEO_MODEL       CONNECTED TO MODEL GEO_MODEL        PACKAGE WEL_0            ON UNIT   1017 AT TIME STEP      1, STRESS PERIOD      5
 UBDSV06 SAVING              RIV IN MODEL GEO_MODEL        PACKAGE GEO_MODEL       CONNECTED TO MODEL GEO_MODEL        PACKAGE RIV_0            ON UNIT   1017 AT TIME STEP      1, STRESS PERIOD      5
 UBDSV06 SAVING              GHB IN MODEL GEO_MODEL        PACKAGE GEO_MODEL       CONNECTED TO MODEL GEO_MODEL        PACKAGE GHB_0            ON UNIT   1017 AT TIME STEP      1, STRESS PERIOD      5
 UBDSV06 SAVING              RCH IN MODEL GEO_MODEL        PACKAGE GEO_MODEL       CONNECTED TO MODEL GEO_MODEL        PACKAGE RCH_0            ON UNIT   1017 AT TIME STEP      1, STRESS PERIOD      5
 UBDSV06 SAVING            EVTA  IN MODEL GEO_MODEL        PACKAGE GEO_MODEL       CONNECTED TO MODEL GEO_MODEL        PACKAGE EVTA_0           ON UNIT   1017 AT TIME STEP      1, STRESS PERIOD      5

 HEAD WILL BE SAVED ON UNIT 1018 AT END OF TIME STEP    1, STRESS PERIOD    5

end timestep


start timestep kper="5" kstp="2" mode="normal"

 UBDSV1 SAVING           STO-SS ON UNIT   1017 AT TIME STEP      2, STRESS PERIOD      5
 UBDSV1 SAVING     FLOW-JA-FACE ON UNIT   1017 AT TIME STEP      2, STRESS PERIOD      5
 UBDSV06 SAVING       DATA-SPDIS IN MODEL GEO_MODEL        PACKAGE NPF             CONNECTED TO MODEL GEO_MODEL        PACKAGE NPF              ON UNIT   1017 AT TIME STEP      2, STRESS PERIOD      5
 UBDSV06 SAVING              WEL IN MODEL GEO_MODEL        PACKAGE GEO_MODEL       CONNECTED TO MODEL GEO_MODEL        PACKAGE WEL_0            ON UNIT   1017 AT TIME STEP      2, STRESS PERIOD      5
 UBDSV06 SAVING              RIV IN MODEL GEO_MODEL        PACKAGE GEO_MODEL       CONNECTED TO MODEL GEO_MODEL        PACKAGE RIV_0            ON UNIT   1017 AT TIME STEP      2, STRESS PERIOD      5
 UBDSV06 SAVING              GHB IN MODEL GEO_MODEL        PACKAGE GEO_MODEL       CONNECTED TO MODEL GEO_MODEL        PACKAGE GHB_0            ON UNIT   1017 AT TIME STEP      2, STRESS PERIOD      5
 UBDSV06 SAVING              RCH IN MODEL GEO_MODEL        PACKAGE GEO_MODEL       CONNECTED TO MODEL GEO_MODEL        PACKAGE RCH_0            ON UNIT   1017 AT TIME STEP      2, STRESS PERIOD      5
 UBDSV06 SAVING            EVTA  IN MODEL GEO_MODEL        PACKAGE GEO_MODEL       CONNECTED TO MODEL GEO_MODEL        PACKAGE EVTA_0           ON UNIT   1017 AT TIME STEP      2, STRESS PERIOD      5

 HEAD WILL BE SAVED ON UNIT 1018 AT END OF TIME STEP    2, STRESS PERIOD    5

end timestep


start timestep kper="5" kstp="3" mode="normal"

 UBDSV1 SAVING           STO-SS ON UNIT   1017 AT TIME STEP      3, STRESS PERIOD      5
 UBDSV1 SAVING     FLOW-JA-FACE ON UNIT   1017 AT TIME STEP      3, STRESS PERIOD      5
 UBDSV06 SAVING       DATA-SPDIS IN MODEL GEO_MODEL        PACKAGE NPF             CONNECTED TO MODEL GEO_MODEL        PACKAGE NPF              ON UNIT   1017 AT TIME STEP      3, STRESS PERIOD      5
 UBDSV06 SAVING              WEL IN MODEL GEO_MODEL        PACKAGE GEO_MODEL       CONNECTED TO MODEL GEO_MODEL        PACKAGE WEL_0            ON UNIT   1017 AT TIME STEP      3, STRESS PERIOD      5
 UBDSV06 SAVING              RIV IN MODEL GEO_MODEL        PACKAGE GEO_MODEL       CONNECTED TO MODEL GEO_MODEL        PACKAGE RIV_0            ON UNIT   1017 AT TIME STEP      3, STRESS PERIOD      5
 UBDSV06 SAVING              GHB IN MODEL GEO_MODEL        PACKAGE GEO_MODEL       CONNECTED TO MODEL GEO_MODEL        PACKAGE GHB_0            ON UNIT   1017 AT TIME STEP      3, STRESS PERIOD      5
 UBDSV06 SAVING              RCH IN MODEL GEO_MODEL        PACKAGE GEO_MODEL       CONNECTED TO MODEL GEO_MODEL        PACKAGE RCH_0            ON UNIT   1017 AT TIME STEP      3, STRESS PERIOD      5
 UBDSV06 SAVING            EVTA  IN MODEL GEO_MODEL        PACKAGE GEO_MODEL       CONNECTED TO MODEL GEO_MODEL        PACKAGE EVTA_0           ON UNIT   1017 AT TIME STEP      3, STRESS PERIOD      5

 HEAD WILL BE SAVED ON UNIT 1018 AT END OF TIME STEP    3, STRESS PERIOD    5

end timestep


start timestep kper="5" kstp="4" mode="normal"

 UBDSV1 SAVING           STO-SS ON UNIT   1017 AT TIME STEP      4, STRESS PERIOD      5
 UBDSV1 SAVING     FLOW-JA-FACE ON UNIT   1017 AT TIME STEP      4, STRESS PERIOD      5
 UBDSV06 SAVING       DATA-SPDIS IN MODEL GEO_MODEL        PACKAGE NPF             CONNECTED TO MODEL GEO_MODEL        PACKAGE NPF              ON UNIT   1017 AT TIME STEP      4, STRESS PERIOD      5
 UBDSV06 SAVING              WEL IN MODEL GEO_MODEL        PACKAGE GEO_MODEL       CONNECTED TO MODEL GEO_MODEL        PACKAGE WEL_0            ON UNIT   1017 AT TIME STEP      4, STRESS PERIOD      5
 UBDSV06 SAVING              RIV IN MODEL GEO_MODEL        PACKAGE GEO_MODEL       CONNECTED TO MODEL GEO_MODEL        PACKAGE RIV_0            ON UNIT   1017 AT TIME STEP      4, STRESS PERIOD      5
 UBDSV06 SAVING              GHB IN MODEL GEO_MODEL        PACKAGE GEO_MODEL       CONNECTED TO MODEL GEO_MODEL        PACKAGE GHB_0            ON UNIT   1017 AT TIME STEP      4, STRESS PERIOD      5
 UBDSV06 SAVING              RCH IN MODEL GEO_MODEL        PACKAGE GEO_MODEL       CONNECTED TO MODEL GEO_MODEL        PACKAGE RCH_0            ON UNIT   1017 AT TIME STEP      4, STRESS PERIOD      5
 UBDSV06 SAVING            EVTA  IN MODEL GEO_MODEL        PACKAGE GEO_MODEL       CONNECTED TO MODEL GEO_MODEL        PACKAGE EVTA_0           ON UNIT   1017 AT TIME STEP      4, STRESS PERIOD      5

 HEAD WILL BE SAVED ON UNIT 1018 AT END OF TIME STEP    4, STRESS PERIOD    5


  VOLUME BUDGET FOR ENTIRE MODEL AT END OF TIME STEP    4, STRESS PERIOD   5
  ---------------------------------------------------------------------------------------------------

     CUMULATIVE VOLUME      L**3       RATES FOR THIS TIME STEP      L**3/T          PACKAGE NAME    
     ------------------                 ------------------------                     ----------------

           IN:                                      IN:
           ---                                      ---
              STO-SS =      114812.8439                STO-SS =       5.7317E-09     STORAGE                          
                 WEL =           0.0000                   WEL =           0.0000     WEL_0                            
                 RIV =    47962914.4435                   RIV =           0.6052     RIV_0                            
                 GHB =    30514921.8193                   GHB =           0.4161     GHB_0                            
                 RCH =     2132272.1657                   RCH =       3.0849E-02     RCH_0                            
                EVTA =           0.0000                  EVTA =           0.0000     EVTA_0                           

            TOTAL IN =    80724921.2724              TOTAL IN =           1.0521

          OUT:                                     OUT:
          ----                                     ----
              STO-SS =       49470.8637                STO-SS =       6.1051E-08     STORAGE                          
                 WEL =    15552000.0000                   WEL =           0.0000     WEL_0                            
                 RIV =    29245205.4146                   RIV =           0.4943     RIV_0                            
                 GHB =    34136170.6659                   GHB =           0.5233     GHB_0                            
                 RCH =           0.0000                   RCH =           0.0000     RCH_0                            
                EVTA =     1762559.5185                  EVTA =       3.4158E-02     EVTA_0                           

           TOTAL OUT =    80745406.4627             TOTAL OUT =           1.0517

            IN - OUT =      -20485.1902              IN - OUT =       4.0902E-04

 PERCENT DISCREPANCY =          -0.03     PERCENT DISCREPANCY =           0.04




         TIME SUMMARY AT END OF TIME STEP    4 IN STRESS PERIOD    5
                    SECONDS     MINUTES      HOURS       DAYS        YEARS
                    -----------------------------------------------------------
   TIME STEP LENGTH 4.32000E+06  72000.      1200.0      50.000     0.13689    
 STRESS PERIOD TIME 1.72800E+07 2.88000E+05  4800.0      200.00     0.54757    
         TOTAL TIME 6.91200E+07 1.15200E+06  19200.      800.00      2.1903    


end timestep


start timestep kper="6" kstp="1" mode="normal"


 OUTPUT CONTROL FOR STRESS PERIOD 6 IS REPEATED USING SETTINGS FROM A PREVIOUS STRESS PERIOD.


 STRESS PERIOD 6 IS TRANSIENT


 REUSING RIVS FROM LAST STRESS PERIOD

 REUSING GHBS FROM LAST STRESS PERIOD

 REUSING RCHS FROM LAST STRESS PERIOD

 REUSING EVTS FROM LAST STRESS PERIOD
 UBDSV1 SAVING           STO-SS ON UNIT   1017 AT TIME STEP      1, STRESS PERIOD      6
 UBDSV1 SAVING     FLOW-JA-FACE ON UNIT   1017 AT TIME STEP      1, STRESS PERIOD      6
 UBDSV06 SAVING       DATA-SPDIS IN MODEL GEO_MODEL        PACKAGE NPF             CONNECTED TO MODEL GEO_MODEL        PACKAGE NPF              ON UNIT   1017 AT TIME STEP      1, STRESS PERIOD      6
 UBDSV06 SAVING              WEL IN MODEL GEO_MODEL        PACKAGE GEO_MODEL       CONNECTED TO MODEL GEO_MODEL        PACKAGE WEL_0            ON UNIT   1017 AT TIME STEP      1, STRESS PERIOD      6
 UBDSV06 SAVING              RIV IN MODEL GEO_MODEL        PACKAGE GEO_MODEL       CONNECTED TO MODEL GEO_MODEL        PACKAGE RIV_0            ON UNIT   1017 AT TIME STEP      1, STRESS PERIOD      6
 UBDSV06 SAVING              GHB IN MODEL GEO_MODEL        PACKAGE GEO_MODEL       CONNECTED TO MODEL GEO_MODEL        PACKAGE GHB_0            ON UNIT   1017 AT TIME STEP      1, STRESS PERIOD      6
 UBDSV06 SAVING              RCH IN MODEL GEO_MODEL        PACKAGE GEO_MODEL       CONNECTED TO MODEL GEO_MODEL        PACKAGE RCH_0            ON UNIT   1017 AT TIME STEP      1, STRESS PERIOD      6
 UBDSV06 SAVING            EVTA  IN MODEL GEO_MODEL        PACKAGE GEO_MODEL       CONNECTED TO MODEL GEO_MODEL        PACKAGE EVTA_0           ON UNIT   1017 AT TIME STEP      1, STRESS PERIOD      6

 HEAD WILL BE SAVED ON UNIT 1018 AT END OF TIME STEP    1, STRESS PERIOD    6

end timestep


start timestep kper="6" kstp="2" mode="normal"

 UBDSV1 SAVING           STO-SS ON UNIT   1017 AT TIME STEP      2, STRESS PERIOD      6
 UBDSV1 SAVING     FLOW-JA-FACE ON UNIT   1017 AT TIME STEP      2, STRESS PERIOD      6
 UBDSV06 SAVING       DATA-SPDIS IN MODEL GEO_MODEL        PACKAGE NPF             CONNECTED TO MODEL GEO_MODEL        PACKAGE NPF              ON UNIT   1017 AT TIME STEP      2, STRESS PERIOD      6
 UBDSV06 SAVING              WEL IN MODEL GEO_MODEL        PACKAGE GEO_MODEL       CONNECTED TO MODEL GEO_MODEL        PACKAGE WEL_0            ON UNIT   1017 AT TIME STEP      2, STRESS PERIOD      6
 UBDSV06 SAVING              RIV IN MODEL GEO_MODEL        PACKAGE GEO_MODEL       CONNECTED TO MODEL GEO_MODEL        PACKAGE RIV_0            ON UNIT   1017 AT TIME STEP      2, STRESS PERIOD      6
 UBDSV06 SAVING              GHB IN MODEL GEO_MODEL        PACKAGE GEO_MODEL       CONNECTED TO MODEL GEO_MODEL        PACKAGE GHB_0            ON UNIT   1017 AT TIME STEP      2, STRESS PERIOD      6
 UBDSV06 SAVING              RCH IN MODEL GEO_MODEL        PACKAGE GEO_MODEL       CONNECTED TO MODEL GEO_MODEL        PACKAGE RCH_0            ON UNIT   1017 AT TIME STEP      2, STRESS PERIOD      6
 UBDSV06 SAVING            EVTA  IN MODEL GEO_MODEL        PACKAGE GEO_MODEL       CONNECTED TO MODEL GEO_MODEL        PACKAGE EVTA_0           ON UNIT   1017 AT TIME STEP      2, STRESS PERIOD      6

 HEAD WILL BE SAVED ON UNIT 1018 AT END OF TIME STEP    2, STRESS PERIOD    6

end timestep


start timestep kper="6" kstp="3" mode="normal"

 UBDSV1 SAVING           STO-SS ON UNIT   1017 AT TIME STEP      3, STRESS PERIOD      6
 UBDSV1 SAVING     FLOW-JA-FACE ON UNIT   1017 AT TIME STEP      3, STRESS PERIOD      6
 UBDSV06 SAVING       DATA-SPDIS IN MODEL GEO_MODEL        PACKAGE NPF             CONNECTED TO MODEL GEO_MODEL        PACKAGE NPF              ON UNIT   1017 AT TIME STEP      3, STRESS PERIOD      6
 UBDSV06 SAVING              WEL IN MODEL GEO_MODEL        PACKAGE GEO_MODEL       CONNECTED TO MODEL GEO_MODEL        PACKAGE WEL_0            ON UNIT   1017 AT TIME STEP      3, STRESS PERIOD      6
 UBDSV06 SAVING              RIV IN MODEL GEO_MODEL        PACKAGE GEO_MODEL       CONNECTED TO MODEL GEO_MODEL        PACKAGE RIV_0            ON UNIT   1017 AT TIME STEP      3, STRESS PERIOD      6
 UBDSV06 SAVING              GHB IN MODEL GEO_MODEL        PACKAGE GEO_MODEL       CONNECTED TO MODEL GEO_MODEL        PACKAGE GHB_0            ON UNIT   1017 AT TIME STEP      3, STRESS PERIOD      6
 UBDSV06 SAVING              RCH IN MODEL GEO_MODEL        PACKAGE GEO_MODEL       CONNECTED TO MODEL GEO_MODEL        PACKAGE RCH_0            ON UNIT   1017 AT TIME STEP      3, STRESS PERIOD      6
 UBDSV06 SAVING            EVTA  IN MODEL GEO_MODEL        PACKAGE GEO_MODEL       CONNECTED TO MODEL GEO_MODEL        PACKAGE EVTA_0           ON UNIT   1017 AT TIME STEP      3, STRESS PERIOD      6

 HEAD WILL BE SAVED ON UNIT 1018 AT END OF TIME STEP    3, STRESS PERIOD    6

end timestep


start timestep kper="6" kstp="4" mode="normal"

 UBDSV1 SAVING           STO-SS ON UNIT   1017 AT TIME STEP      4, STRESS PERIOD      6
 UBDSV1 SAVING     FLOW-JA-FACE ON UNIT   1017 AT TIME STEP      4, STRESS PERIOD      6
 UBDSV06 SAVING       DATA-SPDIS IN MODEL GEO_MODEL        PACKAGE NPF             CONNECTED TO MODEL GEO_MODEL        PACKAGE NPF              ON UNIT   1017 AT TIME STEP      4, STRESS PERIOD      6
 UBDSV06 SAVING              WEL IN MODEL GEO_MODEL        PACKAGE GEO_MODEL       CONNECTED TO MODEL GEO_MODEL        PACKAGE WEL_0            ON UNIT   1017 AT TIME STEP      4, STRESS PERIOD      6
 UBDSV06 SAVING              RIV IN MODEL GEO_MODEL        PACKAGE GEO_MODEL       CONNECTED TO MODEL GEO_MODEL        PACKAGE RIV_0            ON UNIT   1017 AT TIME STEP      4, STRESS PERIOD      6
 UBDSV06 SAVING              GHB IN MODEL GEO_MODEL        PACKAGE GEO_MODEL       CONNECTED TO MODEL GEO_MODEL        PACKAGE GHB_0            ON UNIT   1017 AT TIME STEP      4, STRESS PERIOD      6
 UBDSV06 SAVING              RCH IN MODEL GEO_MODEL        PACKAGE GEO_MODEL       CONNECTED TO MODEL GEO_MODEL        PACKAGE RCH_0            ON UNIT   1017 AT TIME STEP      4, STRESS PERIOD      6
 UBDSV06 SAVING            EVTA  IN MODEL GEO_MODEL        PACKAGE GEO_MODEL       CONNECTED TO MODEL GEO_MODEL        PACKAGE EVTA_0           ON UNIT   1017 AT TIME STEP      4, STRESS PERIOD      6

 HEAD WILL BE SAVED ON UNIT 1018 AT END OF TIME STEP    4, STRESS PERIOD    6


  VOLUME BUDGET FOR ENTIRE MODEL AT END OF TIME STEP    4, STRESS PERIOD   6
  ---------------------------------------------------------------------------------------------------

     CUMULATIVE VOLUME      L**3       RATES FOR THIS TIME STEP      L**3/T          PACKAGE NAME    
     ------------------                 ------------------------                     ----------------

           IN:                                      IN:
           ---                                      ---
              STO-SS =      144432.3449                STO-SS =       4.3531E-08     STORAGE                          
                 WEL =           0.0000                   WEL =           0.0000     WEL_0                            
                 RIV =    62287311.8191                   RIV =           0.8297     RIV_0                            
                 GHB =    38842091.9847                   GHB =           0.4822     GHB_0                            
                 RCH =     2665340.1994                   RCH =       3.0849E-02     RCH_0                            
                EVTA =           0.0000                  EVTA =           0.0000     EVTA_0                           

            TOTAL IN =   103939176.3481              TOTAL IN =           1.3427

          OUT:                                     OUT:
          ----                                     ----
              STO-SS =       49470.9533                STO-SS =       2.0742E-08     STORAGE                          
                 WEL =    25056000.0000                   WEL =           0.5500     WEL_0                            
                 RIV =    34873472.9916                   RIV =           0.3253     RIV_0                            
                 GHB =    41967559.7637                   GHB =           0.4530     GHB_0                            
                 RCH =           0.0000                   RCH =           0.0000     RCH_0                            
                EVTA =     2019337.5559                  EVTA =       1.4829E-02     EVTA_0                           

           TOTAL OUT =   103965841.2645             TOTAL OUT =           1.3431

            IN - OUT =      -26664.9164              IN - OUT =      -3.9418E-04

 PERCENT DISCREPANCY =          -0.03     PERCENT DISCREPANCY =          -0.03




         TIME SUMMARY AT END OF TIME STEP    4 IN STRESS PERIOD    6
                    SECONDS     MINUTES      HOURS       DAYS        YEARS
                    -----------------------------------------------------------
   TIME STEP LENGTH 4.32000E+06  72000.      1200.0      50.000     0.13689    
 STRESS PERIOD TIME 1.72800E+07 2.88000E+05  4800.0      200.00     0.54757    
         TOTAL TIME 8.64000E+07 1.44000E+06  24000.      1000.0      2.7379    


end timestep


start timestep kper="7" kstp="1" mode="normal"


 OUTPUT CONTROL FOR STRESS PERIOD 7 IS REPEATED USING SETTINGS FROM A PREVIOUS STRESS PERIOD.


 STRESS PERIOD 7 IS TRANSIENT


 REUSING RIVS FROM LAST STRESS PERIOD

 REUSING GHBS FROM LAST STRESS PERIOD

 REUSING RCHS FROM LAST STRESS PERIOD

 REUSING EVTS FROM LAST STRESS PERIOD
 UBDSV1 SAVING           STO-SS ON UNIT   1017 AT TIME STEP      1, STRESS PERIOD      7
 UBDSV1 SAVING     FLOW-JA-FACE ON UNIT   1017 AT TIME STEP      1, STRESS PERIOD      7
 UBDSV06 SAVING       DATA-SPDIS IN MODEL GEO_MODEL        PACKAGE NPF             CONNECTED TO MODEL GEO_MODEL        PACKAGE NPF              ON UNIT   1017 AT TIME STEP      1, STRESS PERIOD      7
 UBDSV06 SAVING              WEL IN MODEL GEO_MODEL        PACKAGE GEO_MODEL       CONNECTED TO MODEL GEO_MODEL        PACKAGE WEL_0            ON UNIT   1017 AT TIME STEP      1, STRESS PERIOD      7
 UBDSV06 SAVING              RIV IN MODEL GEO_MODEL        PACKAGE GEO_MODEL       CONNECTED TO MODEL GEO_MODEL        PACKAGE RIV_0            ON UNIT   1017 AT TIME STEP      1, STRESS PERIOD      7
 UBDSV06 SAVING              GHB IN MODEL GEO_MODEL        PACKAGE GEO_MODEL       CONNECTED TO MODEL GEO_MODEL        PACKAGE GHB_0            ON UNIT   1017 AT TIME STEP      1, STRESS PERIOD      7
 UBDSV06 SAVING              RCH IN MODEL GEO_MODEL        PACKAGE GEO_MODEL       CONNECTED TO MODEL GEO_MODEL        PACKAGE RCH_0            ON UNIT   1017 AT TIME STEP      1, STRESS PERIOD      7
 UBDSV06 SAVING            EVTA  IN MODEL GEO_MODEL        PACKAGE GEO_MODEL       CONNECTED TO MODEL GEO_MODEL        PACKAGE EVTA_0           ON UNIT   1017 AT TIME STEP      1, STRESS PERIOD      7

 HEAD WILL BE SAVED ON UNIT 1018 AT END OF TIME STEP    1, STRESS PERIOD    7

end timestep


start timestep kper="7" kstp="2" mode="normal"

 UBDSV1 SAVING           STO-SS ON UNIT   1017 AT TIME STEP      2, STRESS PERIOD      7
 UBDSV1 SAVING     FLOW-JA-FACE ON UNIT   1017 AT TIME STEP      2, STRESS PERIOD      7
 UBDSV06 SAVING       DATA-SPDIS IN MODEL GEO_MODEL        PACKAGE NPF             CONNECTED TO MODEL GEO_MODEL        PACKAGE NPF              ON UNIT   1017 AT TIME STEP      2, STRESS PERIOD      7
 UBDSV06 SAVING              WEL IN MODEL GEO_MODEL        PACKAGE GEO_MODEL       CONNECTED TO MODEL GEO_MODEL        PACKAGE WEL_0            ON UNIT   1017 AT TIME STEP      2, STRESS PERIOD      7
 UBDSV06 SAVING              RIV IN MODEL GEO_MODEL        PACKAGE GEO_MODEL       CONNECTED TO MODEL GEO_MODEL        PACKAGE RIV_0            ON UNIT   1017 AT TIME STEP      2, STRESS PERIOD      7
 UBDSV06 SAVING              GHB IN MODEL GEO_MODEL        PACKAGE GEO_MODEL       CONNECTED TO MODEL GEO_MODEL        PACKAGE GHB_0            ON UNIT   1017 AT TIME STEP      2, STRESS PERIOD      7
 UBDSV06 SAVING              RCH IN MODEL GEO_MODEL        PACKAGE GEO_MODEL       CONNECTED TO MODEL GEO_MODEL        PACKAGE RCH_0            ON UNIT   1017 AT TIME STEP      2, STRESS PERIOD      7
 UBDSV06 SAVING            EVTA  IN MODEL GEO_MODEL        PACKAGE GEO_MODEL       CONNECTED TO MODEL GEO_MODEL        PACKAGE EVTA_0           ON UNIT   1017 AT TIME STEP      2, STRESS PERIOD      7

 HEAD WILL BE SAVED ON UNIT 1018 AT END OF TIME STEP    2, STRESS PERIOD    7

end timestep


start timestep kper="7" kstp="3" mode="normal"

 UBDSV1 SAVING           STO-SS ON UNIT   1017 AT TIME STEP      3, STRESS PERIOD      7
 UBDSV1 SAVING     FLOW-JA-FACE ON UNIT   1017 AT TIME STEP      3, STRESS PERIOD      7
 UBDSV06 SAVING       DATA-SPDIS IN MODEL GEO_MODEL        PACKAGE NPF             CONNECTED TO MODEL GEO_MODEL        PACKAGE NPF              ON UNIT   1017 AT TIME STEP      3, STRESS PERIOD      7
 UBDSV06 SAVING              WEL IN MODEL GEO_MODEL        PACKAGE GEO_MODEL       CONNECTED TO MODEL GEO_MODEL        PACKAGE WEL_0            ON UNIT   1017 AT TIME STEP      3, STRESS PERIOD      7
 UBDSV06 SAVING              RIV IN MODEL GEO_MODEL        PACKAGE GEO_MODEL       CONNECTED TO MODEL GEO_MODEL        PACKAGE RIV_0            ON UNIT   1017 AT TIME STEP      3, STRESS PERIOD      7
 UBDSV06 SAVING              GHB IN MODEL GEO_MODEL        PACKAGE GEO_MODEL       CONNECTED TO MODEL GEO_MODEL        PACKAGE GHB_0            ON UNIT   1017 AT TIME STEP      3, STRESS PERIOD      7
 UBDSV06 SAVING              RCH IN MODEL GEO_MODEL        PACKAGE GEO_MODEL       CONNECTED TO MODEL GEO_MODEL        PACKAGE RCH_0            ON UNIT   1017 AT TIME STEP      3, STRESS PERIOD      7
 UBDSV06 SAVING            EVTA  IN MODEL GEO_MODEL        PACKAGE GEO_MODEL       CONNECTED TO MODEL GEO_MODEL        PACKAGE EVTA_0           ON UNIT   1017 AT TIME STEP      3, STRESS PERIOD      7

 HEAD WILL BE SAVED ON UNIT 1018 AT END OF TIME STEP    3, STRESS PERIOD    7

end timestep


start timestep kper="7" kstp="4" mode="normal"

 UBDSV1 SAVING           STO-SS ON UNIT   1017 AT TIME STEP      4, STRESS PERIOD      7
 UBDSV1 SAVING     FLOW-JA-FACE ON UNIT   1017 AT TIME STEP      4, STRESS PERIOD      7
 UBDSV06 SAVING       DATA-SPDIS IN MODEL GEO_MODEL        PACKAGE NPF             CONNECTED TO MODEL GEO_MODEL        PACKAGE NPF              ON UNIT   1017 AT TIME STEP      4, STRESS PERIOD      7
 UBDSV06 SAVING              WEL IN MODEL GEO_MODEL        PACKAGE GEO_MODEL       CONNECTED TO MODEL GEO_MODEL        PACKAGE WEL_0            ON UNIT   1017 AT TIME STEP      4, STRESS PERIOD      7
 UBDSV06 SAVING              RIV IN MODEL GEO_MODEL        PACKAGE GEO_MODEL       CONNECTED TO MODEL GEO_MODEL        PACKAGE RIV_0            ON UNIT   1017 AT TIME STEP      4, STRESS PERIOD      7
 UBDSV06 SAVING              GHB IN MODEL GEO_MODEL        PACKAGE GEO_MODEL       CONNECTED TO MODEL GEO_MODEL        PACKAGE GHB_0            ON UNIT   1017 AT TIME STEP      4, STRESS PERIOD      7
 UBDSV06 SAVING              RCH IN MODEL GEO_MODEL        PACKAGE GEO_MODEL       CONNECTED TO MODEL GEO_MODEL        PACKAGE RCH_0            ON UNIT   1017 AT TIME STEP      4, STRESS PERIOD      7
 UBDSV06 SAVING            EVTA  IN MODEL GEO_MODEL        PACKAGE GEO_MODEL       CONNECTED TO MODEL GEO_MODEL        PACKAGE EVTA_0           ON UNIT   1017 AT TIME STEP      4, STRESS PERIOD      7

 HEAD WILL BE SAVED ON UNIT 1018 AT END OF TIME STEP    4, STRESS PERIOD    7


  VOLUME BUDGET FOR ENTIRE MODEL AT END OF TIME STEP    4, STRESS PERIOD   7
  ---------------------------------------------------------------------------------------------------

     CUMULATIVE VOLUME      L**3       RATES FOR THIS TIME STEP      L**3/T          PACKAGE NAME    
     ------------------                 ------------------------                     ----------------

           IN:                                      IN:
           ---                                      ---
              STO-SS =      144432.7583                STO-SS =       4.0610E-08     STORAGE                          
                 WEL =           0.0000                   WEL =           0.0000     WEL_0                            
                 RIV =    72752412.9420                   RIV =           0.6052     RIV_0                            
                 GHB =    46034670.0289                   GHB =           0.4160     GHB_0                            
                 RCH =     3198408.2331                   RCH =       3.0849E-02     RCH_0                            
                EVTA =           0.0000                  EVTA =           0.0000     EVTA_0                           

            TOTAL IN =   122129923.9624              TOTAL IN =           1.0521

          OUT:                                     OUT:
          ----                                     ----
              STO-SS =       79104.2056                STO-SS =       5.3930E-08     STORAGE                          
                 WEL =    25056000.0000                   WEL =           0.0000     WEL_0                            
                 RIV =    43408025.4334                   RIV =           0.4944     RIV_0                            
                 GHB =    51007246.6811                   GHB =           0.5234     GHB_0                            
                 RCH =           0.0000                   RCH =           0.0000     RCH_0                            
                EVTA =     2608628.7436                  EVTA =       3.4174E-02     EVTA_0                           

           TOTAL OUT =   122159005.0637             TOTAL OUT =           1.0519

            IN - OUT =      -29081.1014              IN - OUT =       1.5366E-04

 PERCENT DISCREPANCY =          -0.02     PERCENT DISCREPANCY =           0.01




         TIME SUMMARY AT END OF TIME STEP    4 IN STRESS PERIOD    7
                    SECONDS     MINUTES      HOURS       DAYS        YEARS
                    -----------------------------------------------------------
   TIME STEP LENGTH 4.32000E+06  72000.      1200.0      50.000     0.13689    
 STRESS PERIOD TIME 1.72800E+07 2.88000E+05  4800.0      200.00     0.54757    
         TOTAL TIME 1.03680E+08 1.72800E+06  28800.      1200.0      3.2854    


end timestep


start timestep kper="8" kstp="1" mode="normal"


 OUTPUT CONTROL FOR STRESS PERIOD 8 IS REPEATED USING SETTINGS FROM A PREVIOUS STRESS PERIOD.


 STRESS PERIOD 8 IS TRANSIENT


 REUSING RIVS FROM LAST STRESS PERIOD

 REUSING GHBS FROM LAST STRESS PERIOD

 REUSING RCHS FROM LAST STRESS PERIOD

 REUSING EVTS FROM LAST STRESS PERIOD
 UBDSV1 SAVING           STO-SS ON UNIT   1017 AT TIME STEP      1, STRESS PERIOD      8
 UBDSV1 SAVING     FLOW-JA-FACE ON UNIT   1017 AT TIME STEP      1, STRESS PERIOD      8
 UBDSV06 SAVING       DATA-SPDIS IN MODEL GEO_MODEL        PACKAGE NPF             CONNECTED TO MODEL GEO_MODEL        PACKAGE NPF              ON UNIT   1017 AT TIME STEP      1, STRESS PERIOD      8
 UBDSV06 SAVING              WEL IN MODEL GEO_MODEL        PACKAGE GEO_MODEL       CONNECTED TO MODEL GEO_MODEL        PACKAGE WEL_0            ON UNIT   1017 AT TIME STEP      1, STRESS PERIOD      8
 UBDSV06 SAVING              RIV IN MODEL GEO_MODEL        PACKAGE GEO_MODEL       CONNECTED TO MODEL GEO_MODEL        PACKAGE RIV_0            ON UNIT   1017 AT TIME STEP      1, STRESS PERIOD      8
 UBDSV06 SAVING              GHB IN MODEL GEO_MODEL        PACKAGE GEO_MODEL       CONNECTED TO MODEL GEO_MODEL        PACKAGE GHB_0            ON UNIT   1017 AT TIME STEP      1, STRESS PERIOD      8
 UBDSV06 SAVING              RCH IN MODEL GEO_MODEL        PACKAGE GEO_MODEL       CONNECTED TO MODEL GEO_MODEL        PACKAGE RCH_0            ON UNIT   1017 AT TIME STEP      1, STRESS PERIOD      8
 UBDSV06 SAVING            EVTA  IN MODEL GEO_MODEL        PACKAGE GEO_MODEL       CONNECTED TO MODEL GEO_MODEL        PACKAGE EVTA_0           ON UNIT   1017 AT TIME STEP      1, STRESS PERIOD      8

 HEAD WILL BE SAVED ON UNIT 1018 AT END OF TIME STEP    1, STRESS PERIOD    8

end timestep


start timestep kper="8" kstp="2" mode="normal"

 UBDSV1 SAVING           STO-SS ON UNIT   1017 AT TIME STEP      2, STRESS PERIOD      8
 UBDSV1 SAVING     FLOW-JA-FACE ON UNIT   1017 AT TIME STEP      2, STRESS PERIOD      8
 UBDSV06 SAVING       DATA-SPDIS IN MODEL GEO_MODEL        PACKAGE NPF             CONNECTED TO MODEL GEO_MODEL        PACKAGE NPF              ON UNIT   1017 AT TIME STEP      2, STRESS PERIOD      8
 UBDSV06 SAVING              WEL IN MODEL GEO_MODEL        PACKAGE GEO_MODEL       CONNECTED TO MODEL GEO_MODEL        PACKAGE WEL_0            ON UNIT   1017 AT TIME STEP      2, STRESS PERIOD      8
 UBDSV06 SAVING              RIV IN MODEL GEO_MODEL        PACKAGE GEO_MODEL       CONNECTED TO MODEL GEO_MODEL        PACKAGE RIV_0            ON UNIT   1017 AT TIME STEP      2, STRESS PERIOD      8
 UBDSV06 SAVING              GHB IN MODEL GEO_MODEL        PACKAGE GEO_MODEL       CONNECTED TO MODEL GEO_MODEL        PACKAGE GHB_0            ON UNIT   1017 AT TIME STEP      2, STRESS PERIOD      8
 UBDSV06 SAVING              RCH IN MODEL GEO_MODEL        PACKAGE GEO_MODEL       CONNECTED TO MODEL GEO_MODEL        PACKAGE RCH_0            ON UNIT   1017 AT TIME STEP      2, STRESS PERIOD      8
 UBDSV06 SAVING            EVTA  IN MODEL GEO_MODEL        PACKAGE GEO_MODEL       CONNECTED TO MODEL GEO_MODEL        PACKAGE EVTA_0           ON UNIT   1017 AT TIME STEP      2, STRESS PERIOD      8

 HEAD WILL BE SAVED ON UNIT 1018 AT END OF TIME STEP    2, STRESS PERIOD    8

end timestep


start timestep kper="8" kstp="3" mode="normal"

 UBDSV1 SAVING           STO-SS ON UNIT   1017 AT TIME STEP      3, STRESS PERIOD      8
 UBDSV1 SAVING     FLOW-JA-FACE ON UNIT   1017 AT TIME STEP      3, STRESS PERIOD      8
 UBDSV06 SAVING       DATA-SPDIS IN MODEL GEO_MODEL        PACKAGE NPF             CONNECTED TO MODEL GEO_MODEL        PACKAGE NPF              ON UNIT   1017 AT TIME STEP      3, STRESS PERIOD      8
 UBDSV06 SAVING              WEL IN MODEL GEO_MODEL        PACKAGE GEO_MODEL       CONNECTED TO MODEL GEO_MODEL        PACKAGE WEL_0            ON UNIT   1017 AT TIME STEP      3, STRESS PERIOD      8
 UBDSV06 SAVING              RIV IN MODEL GEO_MODEL        PACKAGE GEO_MODEL       CONNECTED TO MODEL GEO_MODEL        PACKAGE RIV_0            ON UNIT   1017 AT TIME STEP      3, STRESS PERIOD      8
 UBDSV06 SAVING              GHB IN MODEL GEO_MODEL        PACKAGE GEO_MODEL       CONNECTED TO MODEL GEO_MODEL        PACKAGE GHB_0            ON UNIT   1017 AT TIME STEP      3, STRESS PERIOD      8
 UBDSV06 SAVING              RCH IN MODEL GEO_MODEL        PACKAGE GEO_MODEL       CONNECTED TO MODEL GEO_MODEL        PACKAGE RCH_0            ON UNIT   1017 AT TIME STEP      3, STRESS PERIOD      8
 UBDSV06 SAVING            EVTA  IN MODEL GEO_MODEL        PACKAGE GEO_MODEL       CONNECTED TO MODEL GEO_MODEL        PACKAGE EVTA_0           ON UNIT   1017 AT TIME STEP      3, STRESS PERIOD      8

 HEAD WILL BE SAVED ON UNIT 1018 AT END OF TIME STEP    3, STRESS PERIOD    8

end timestep


start timestep kper="8" kstp="4" mode="normal"

 UBDSV1 SAVING           STO-SS ON UNIT   1017 AT TIME STEP      4, STRESS PERIOD      8
 UBDSV1 SAVING     FLOW-JA-FACE ON UNIT   1017 AT TIME STEP      4, STRESS PERIOD      8
 UBDSV06 SAVING       DATA-SPDIS IN MODEL GEO_MODEL        PACKAGE NPF             CONNECTED TO MODEL GEO_MODEL        PACKAGE NPF              ON UNIT   1017 AT TIME STEP      4, STRESS PERIOD      8
 UBDSV06 SAVING              WEL IN MODEL GEO_MODEL        PACKAGE GEO_MODEL       CONNECTED TO MODEL GEO_MODEL        PACKAGE WEL_0            ON UNIT   1017 AT TIME STEP      4, STRESS PERIOD      8
 UBDSV06 SAVING              RIV IN MODEL GEO_MODEL        PACKAGE GEO_MODEL       CONNECTED TO MODEL GEO_MODEL        PACKAGE RIV_0            ON UNIT   1017 AT TIME STEP      4, STRESS PERIOD      8
 UBDSV06 SAVING              GHB IN MODEL GEO_MODEL        PACKAGE GEO_MODEL       CONNECTED TO MODEL GEO_MODEL        PACKAGE GHB_0            ON UNIT   1017 AT TIME STEP      4, STRESS PERIOD      8
 UBDSV06 SAVING              RCH IN MODEL GEO_MODEL        PACKAGE GEO_MODEL       CONNECTED TO MODEL GEO_MODEL        PACKAGE RCH_0            ON UNIT   1017 AT TIME STEP      4, STRESS PERIOD      8
 UBDSV06 SAVING            EVTA  IN MODEL GEO_MODEL        PACKAGE GEO_MODEL       CONNECTED TO MODEL GEO_MODEL        PACKAGE EVTA_0           ON UNIT   1017 AT TIME STEP      4, STRESS PERIOD      8

 HEAD WILL BE SAVED ON UNIT 1018 AT END OF TIME STEP    4, STRESS PERIOD    8


  VOLUME BUDGET FOR ENTIRE MODEL AT END OF TIME STEP    4, STRESS PERIOD   8
  ---------------------------------------------------------------------------------------------------

     CUMULATIVE VOLUME      L**3       RATES FOR THIS TIME STEP      L**3/T          PACKAGE NAME    
     ------------------                 ------------------------                     ----------------

           IN:                                      IN:
           ---                                      ---
              STO-SS =      144433.2197                STO-SS =       2.0472E-08     STORAGE                          
                 WEL =           0.0000                   WEL =           0.0000     WEL_0                            
                 RIV =    83209439.2800                   RIV =           0.6052     RIV_0                            
                 GHB =    53223874.5663                   GHB =           0.4160     GHB_0                            
                 RCH =     3731476.2669                   RCH =       3.0849E-02     RCH_0                            
                EVTA =           0.0000                  EVTA =           0.0000     EVTA_0                           

            TOTAL IN =   140309223.3329              TOTAL IN =           1.0520

          OUT:                                     OUT:
          ----                                     ----
              STO-SS =       79105.1936                STO-SS =       3.2576E-08     STORAGE                          
                 WEL =    25056000.0000                   WEL =           0.0000     WEL_0                            
                 RIV =    51950744.3888                   RIV =           0.4944     RIV_0                            
                 GHB =    60050781.5921                   GHB =           0.5234     GHB_0                            
                 RCH =           0.0000                   RCH =           0.0000     RCH_0                            
                EVTA =     3199147.1930                  EVTA =       3.4173E-02     EVTA_0                           

           TOTAL OUT =   140335778.3675             TOTAL OUT =           1.0519

            IN - OUT =      -26555.0346              IN - OUT =       1.4509E-04

 PERCENT DISCREPANCY =          -0.02     PERCENT DISCREPANCY =           0.01




         TIME SUMMARY AT END OF TIME STEP    4 IN STRESS PERIOD    8
                    SECONDS     MINUTES      HOURS       DAYS        YEARS
                    -----------------------------------------------------------
   TIME STEP LENGTH 4.32000E+06  72000.      1200.0      50.000     0.13689    
 STRESS PERIOD TIME 1.72800E+07 2.88000E+05  4800.0      200.00     0.54757    
         TOTAL TIME 1.20960E+08 2.01600E+06  33600.      1400.0      3.8330    


end timestep


start timestep kper="9" kstp="1" mode="normal"


 OUTPUT CONTROL FOR STRESS PERIOD 9 IS REPEATED USING SETTINGS FROM A PREVIOUS STRESS PERIOD.


 STRESS PERIOD 9 IS TRANSIENT


 REUSING RIVS FROM LAST STRESS PERIOD

 REUSING GHBS FROM LAST STRESS PERIOD

 REUSING RCHS FROM LAST STRESS PERIOD

 REUSING EVTS FROM LAST STRESS PERIOD
 UBDSV1 SAVING           STO-SS ON UNIT   1017 AT TIME STEP      1, STRESS PERIOD      9
 UBDSV1 SAVING     FLOW-JA-FACE ON UNIT   1017 AT TIME STEP      1, STRESS PERIOD      9
 UBDSV06 SAVING       DATA-SPDIS IN MODEL GEO_MODEL        PACKAGE NPF             CONNECTED TO MODEL GEO_MODEL        PACKAGE NPF              ON UNIT   1017 AT TIME STEP      1, STRESS PERIOD      9
 UBDSV06 SAVING              WEL IN MODEL GEO_MODEL        PACKAGE GEO_MODEL       CONNECTED TO MODEL GEO_MODEL        PACKAGE WEL_0            ON UNIT   1017 AT TIME STEP      1, STRESS PERIOD      9
 UBDSV06 SAVING              RIV IN MODEL GEO_MODEL        PACKAGE GEO_MODEL       CONNECTED TO MODEL GEO_MODEL        PACKAGE RIV_0            ON UNIT   1017 AT TIME STEP      1, STRESS PERIOD      9
 UBDSV06 SAVING              GHB IN MODEL GEO_MODEL        PACKAGE GEO_MODEL       CONNECTED TO MODEL GEO_MODEL        PACKAGE GHB_0            ON UNIT   1017 AT TIME STEP      1, STRESS PERIOD      9
 UBDSV06 SAVING              RCH IN MODEL GEO_MODEL        PACKAGE GEO_MODEL       CONNECTED TO MODEL GEO_MODEL        PACKAGE RCH_0            ON UNIT   1017 AT TIME STEP      1, STRESS PERIOD      9
 UBDSV06 SAVING            EVTA  IN MODEL GEO_MODEL        PACKAGE GEO_MODEL       CONNECTED TO MODEL GEO_MODEL        PACKAGE EVTA_0           ON UNIT   1017 AT TIME STEP      1, STRESS PERIOD      9

 HEAD WILL BE SAVED ON UNIT 1018 AT END OF TIME STEP    1, STRESS PERIOD    9

end timestep


start timestep kper="9" kstp="2" mode="normal"

 UBDSV1 SAVING           STO-SS ON UNIT   1017 AT TIME STEP      2, STRESS PERIOD      9
 UBDSV1 SAVING     FLOW-JA-FACE ON UNIT   1017 AT TIME STEP      2, STRESS PERIOD      9
 UBDSV06 SAVING       DATA-SPDIS IN MODEL GEO_MODEL        PACKAGE NPF             CONNECTED TO MODEL GEO_MODEL        PACKAGE NPF              ON UNIT   1017 AT TIME STEP      2, STRESS PERIOD      9
 UBDSV06 SAVING              WEL IN MODEL GEO_MODEL        PACKAGE GEO_MODEL       CONNECTED TO MODEL GEO_MODEL        PACKAGE WEL_0            ON UNIT   1017 AT TIME STEP      2, STRESS PERIOD      9
 UBDSV06 SAVING              RIV IN MODEL GEO_MODEL        PACKAGE GEO_MODEL       CONNECTED TO MODEL GEO_MODEL        PACKAGE RIV_0            ON UNIT   1017 AT TIME STEP      2, STRESS PERIOD      9
 UBDSV06 SAVING              GHB IN MODEL GEO_MODEL        PACKAGE GEO_MODEL       CONNECTED TO MODEL GEO_MODEL        PACKAGE GHB_0            ON UNIT   1017 AT TIME STEP      2, STRESS PERIOD      9
 UBDSV06 SAVING              RCH IN MODEL GEO_MODEL        PACKAGE GEO_MODEL       CONNECTED TO MODEL GEO_MODEL        PACKAGE RCH_0            ON UNIT   1017 AT TIME STEP      2, STRESS PERIOD      9
 UBDSV06 SAVING            EVTA  IN MODEL GEO_MODEL        PACKAGE GEO_MODEL       CONNECTED TO MODEL GEO_MODEL        PACKAGE EVTA_0           ON UNIT   1017 AT TIME STEP      2, STRESS PERIOD      9

 HEAD WILL BE SAVED ON UNIT 1018 AT END OF TIME STEP    2, STRESS PERIOD    9

end timestep


start timestep kper="9" kstp="3" mode="normal"

 UBDSV1 SAVING           STO-SS ON UNIT   1017 AT TIME STEP      3, STRESS PERIOD      9
 UBDSV1 SAVING     FLOW-JA-FACE ON UNIT   1017 AT TIME STEP      3, STRESS PERIOD      9
 UBDSV06 SAVING       DATA-SPDIS IN MODEL GEO_MODEL        PACKAGE NPF             CONNECTED TO MODEL GEO_MODEL        PACKAGE NPF              ON UNIT   1017 AT TIME STEP      3, STRESS PERIOD      9
 UBDSV06 SAVING              WEL IN MODEL GEO_MODEL        PACKAGE GEO_MODEL       CONNECTED TO MODEL GEO_MODEL        PACKAGE WEL_0            ON UNIT   1017 AT TIME STEP      3, STRESS PERIOD      9
 UBDSV06 SAVING              RIV IN MODEL GEO_MODEL        PACKAGE GEO_MODEL       CONNECTED TO MODEL GEO_MODEL        PACKAGE RIV_0            ON UNIT   1017 AT TIME STEP      3, STRESS PERIOD      9
 UBDSV06 SAVING              GHB IN MODEL GEO_MODEL        PACKAGE GEO_MODEL       CONNECTED TO MODEL GEO_MODEL        PACKAGE GHB_0            ON UNIT   1017 AT TIME STEP      3, STRESS PERIOD      9
 UBDSV06 SAVING              RCH IN MODEL GEO_MODEL        PACKAGE GEO_MODEL       CONNECTED TO MODEL GEO_MODEL        PACKAGE RCH_0            ON UNIT   1017 AT TIME STEP      3, STRESS PERIOD      9
 UBDSV06 SAVING            EVTA  IN MODEL GEO_MODEL        PACKAGE GEO_MODEL       CONNECTED TO MODEL GEO_MODEL        PACKAGE EVTA_0           ON UNIT   1017 AT TIME STEP      3, STRESS PERIOD      9

 HEAD WILL BE SAVED ON UNIT 1018 AT END OF TIME STEP    3, STRESS PERIOD    9

end timestep


start timestep kper="9" kstp="4" mode="normal"

 UBDSV1 SAVING           STO-SS ON UNIT   1017 AT TIME STEP      4, STRESS PERIOD      9
 UBDSV1 SAVING     FLOW-JA-FACE ON UNIT   1017 AT TIME STEP      4, STRESS PERIOD      9
 UBDSV06 SAVING       DATA-SPDIS IN MODEL GEO_MODEL        PACKAGE NPF             CONNECTED TO MODEL GEO_MODEL        PACKAGE NPF              ON UNIT   1017 AT TIME STEP      4, STRESS PERIOD      9
 UBDSV06 SAVING              WEL IN MODEL GEO_MODEL        PACKAGE GEO_MODEL       CONNECTED TO MODEL GEO_MODEL        PACKAGE WEL_0            ON UNIT   1017 AT TIME STEP      4, STRESS PERIOD      9
 UBDSV06 SAVING              RIV IN MODEL GEO_MODEL        PACKAGE GEO_MODEL       CONNECTED TO MODEL GEO_MODEL        PACKAGE RIV_0            ON UNIT   1017 AT TIME STEP      4, STRESS PERIOD      9
 UBDSV06 SAVING              GHB IN MODEL GEO_MODEL        PACKAGE GEO_MODEL       CONNECTED TO MODEL GEO_MODEL        PACKAGE GHB_0            ON UNIT   1017 AT TIME STEP      4, STRESS PERIOD      9
 UBDSV06 SAVING              RCH IN MODEL GEO_MODEL        PACKAGE GEO_MODEL       CONNECTED TO MODEL GEO_MODEL        PACKAGE RCH_0            ON UNIT   1017 AT TIME STEP      4, STRESS PERIOD      9
 UBDSV06 SAVING            EVTA  IN MODEL GEO_MODEL        PACKAGE GEO_MODEL       CONNECTED TO MODEL GEO_MODEL        PACKAGE EVTA_0           ON UNIT   1017 AT TIME STEP      4, STRESS PERIOD      9

 HEAD WILL BE SAVED ON UNIT 1018 AT END OF TIME STEP    4, STRESS PERIOD    9


  VOLUME BUDGET FOR ENTIRE MODEL AT END OF TIME STEP    4, STRESS PERIOD   9
  ---------------------------------------------------------------------------------------------------

     CUMULATIVE VOLUME      L**3       RATES FOR THIS TIME STEP      L**3/T          PACKAGE NAME    
     ------------------                 ------------------------                     ----------------

           IN:                                      IN:
           ---                                      ---
              STO-SS =      168327.8731                STO-SS =       1.1215E-07     STORAGE                          
                 WEL =           0.0000                   WEL =           0.0000     WEL_0                            
                 RIV =    96740776.6847                   RIV =           0.7836     RIV_0                            
                 GHB =    61297115.1415                   GHB =           0.4674     GHB_0                            
                 RCH =     4264544.3006                   RCH =       3.0849E-02     RCH_0                            
                EVTA =           0.0000                  EVTA =           0.0000     EVTA_0                           

            TOTAL IN =   162470764.0000              TOTAL IN =           1.2819

          OUT:                                     OUT:
          ----                                     ----
              STO-SS =       79105.7155                STO-SS =       3.2792E-08     STORAGE                          
                 WEL =    32832000.0000                   WEL =           0.4500     WEL_0                            
                 RIV =    58030133.2227                   RIV =           0.3515     RIV_0                            
                 GHB =    68074648.0663                   GHB =           0.4641     GHB_0                            
                 RCH =           0.0000                   RCH =           0.0000     RCH_0                            
                EVTA =     3490388.8520                  EVTA =       1.6826E-02     EVTA_0                           

           TOTAL OUT =   162506275.8564             TOTAL OUT =           1.2824

            IN - OUT =      -35511.8565              IN - OUT =      -5.7123E-04

 PERCENT DISCREPANCY =          -0.02     PERCENT DISCREPANCY =          -0.04




         TIME SUMMARY AT END OF TIME STEP    4 IN STRESS PERIOD    9
                    SECONDS     MINUTES      HOURS       DAYS        YEARS
                    -----------------------------------------------------------
   TIME STEP LENGTH 4.32000E+06  72000.      1200.0      50.000     0.13689    
 STRESS PERIOD TIME 1.72800E+07 2.88000E+05  4800.0      200.00     0.54757    
         TOTAL TIME 1.38240E+08 2.30400E+06  38400.      1600.0      4.3806    


end timestep


start timestep kper="10" kstp="1" mode="normal"


 OUTPUT CONTROL FOR STRESS PERIOD 10 IS REPEATED USING SETTINGS FROM A PREVIOUS STRESS PERIOD.


 STRESS PERIOD 10 IS TRANSIENT


 REUSING RIVS FROM LAST STRESS PERIOD

 REUSING GHBS FROM LAST STRESS PERIOD

 REUSING RCHS FROM LAST STRESS PERIOD

 REUSING EVTS FROM LAST STRESS PERIOD
 UBDSV1 SAVING           STO-SS ON UNIT   1017 AT TIME STEP      1, STRESS PERIOD     10
 UBDSV1 SAVING     FLOW-JA-FACE ON UNIT   1017 AT TIME STEP      1, STRESS PERIOD     10
 UBDSV06 SAVING       DATA-SPDIS IN MODEL GEO_MODEL        PACKAGE NPF             CONNECTED TO MODEL GEO_MODEL        PACKAGE NPF              ON UNIT   1017 AT TIME STEP      1, STRESS PERIOD     10
 UBDSV06 SAVING              WEL IN MODEL GEO_MODEL        PACKAGE GEO_MODEL       CONNECTED TO MODEL GEO_MODEL        PACKAGE WEL_0            ON UNIT   1017 AT TIME STEP      1, STRESS PERIOD     10
 UBDSV06 SAVING              RIV IN MODEL GEO_MODEL        PACKAGE GEO_MODEL       CONNECTED TO MODEL GEO_MODEL        PACKAGE RIV_0            ON UNIT   1017 AT TIME STEP      1, STRESS PERIOD     10
 UBDSV06 SAVING              GHB IN MODEL GEO_MODEL        PACKAGE GEO_MODEL       CONNECTED TO MODEL GEO_MODEL        PACKAGE GHB_0            ON UNIT   1017 AT TIME STEP      1, STRESS PERIOD     10
 UBDSV06 SAVING              RCH IN MODEL GEO_MODEL        PACKAGE GEO_MODEL       CONNECTED TO MODEL GEO_MODEL        PACKAGE RCH_0            ON UNIT   1017 AT TIME STEP      1, STRESS PERIOD     10
 UBDSV06 SAVING            EVTA  IN MODEL GEO_MODEL        PACKAGE GEO_MODEL       CONNECTED TO MODEL GEO_MODEL        PACKAGE EVTA_0           ON UNIT   1017 AT TIME STEP      1, STRESS PERIOD     10

 HEAD WILL BE SAVED ON UNIT 1018 AT END OF TIME STEP    1, STRESS PERIOD   10

end timestep


start timestep kper="10" kstp="2" mode="normal"

 UBDSV1 SAVING           STO-SS ON UNIT   1017 AT TIME STEP      2, STRESS PERIOD     10
 UBDSV1 SAVING     FLOW-JA-FACE ON UNIT   1017 AT TIME STEP      2, STRESS PERIOD     10
 UBDSV06 SAVING       DATA-SPDIS IN MODEL GEO_MODEL        PACKAGE NPF             CONNECTED TO MODEL GEO_MODEL        PACKAGE NPF              ON UNIT   1017 AT TIME STEP      2, STRESS PERIOD     10
 UBDSV06 SAVING              WEL IN MODEL GEO_MODEL        PACKAGE GEO_MODEL       CONNECTED TO MODEL GEO_MODEL        PACKAGE WEL_0            ON UNIT   1017 AT TIME STEP      2, STRESS PERIOD     10
 UBDSV06 SAVING              RIV IN MODEL GEO_MODEL        PACKAGE GEO_MODEL       CONNECTED TO MODEL GEO_MODEL        PACKAGE RIV_0            ON UNIT   1017 AT TIME STEP      2, STRESS PERIOD     10
 UBDSV06 SAVING              GHB IN MODEL GEO_MODEL        PACKAGE GEO_MODEL       CONNECTED TO MODEL GEO_MODEL        PACKAGE GHB_0            ON UNIT   1017 AT TIME STEP      2, STRESS PERIOD     10
 UBDSV06 SAVING              RCH IN MODEL GEO_MODEL        PACKAGE GEO_MODEL       CONNECTED TO MODEL GEO_MODEL        PACKAGE RCH_0            ON UNIT   1017 AT TIME STEP      2, STRESS PERIOD     10
 UBDSV06 SAVING            EVTA  IN MODEL GEO_MODEL        PACKAGE GEO_MODEL       CONNECTED TO MODEL GEO_MODEL        PACKAGE EVTA_0           ON UNIT   1017 AT TIME STEP      2, STRESS PERIOD     10

 HEAD WILL BE SAVED ON UNIT 1018 AT END OF TIME STEP    2, STRESS PERIOD   10

end timestep


start timestep kper="10" kstp="3" mode="normal"

 UBDSV1 SAVING           STO-SS ON UNIT   1017 AT TIME STEP      3, STRESS PERIOD     10
 UBDSV1 SAVING     FLOW-JA-FACE ON UNIT   1017 AT TIME STEP      3, STRESS PERIOD     10
 UBDSV06 SAVING       DATA-SPDIS IN MODEL GEO_MODEL        PACKAGE NPF             CONNECTED TO MODEL GEO_MODEL        PACKAGE NPF              ON UNIT   1017 AT TIME STEP      3, STRESS PERIOD     10
 UBDSV06 SAVING              WEL IN MODEL GEO_MODEL        PACKAGE GEO_MODEL       CONNECTED TO MODEL GEO_MODEL        PACKAGE WEL_0            ON UNIT   1017 AT TIME STEP      3, STRESS PERIOD     10
 UBDSV06 SAVING              RIV IN MODEL GEO_MODEL        PACKAGE GEO_MODEL       CONNECTED TO MODEL GEO_MODEL        PACKAGE RIV_0            ON UNIT   1017 AT TIME STEP      3, STRESS PERIOD     10
 UBDSV06 SAVING              GHB IN MODEL GEO_MODEL        PACKAGE GEO_MODEL       CONNECTED TO MODEL GEO_MODEL        PACKAGE GHB_0            ON UNIT   1017 AT TIME STEP      3, STRESS PERIOD     10
 UBDSV06 SAVING              RCH IN MODEL GEO_MODEL        PACKAGE GEO_MODEL       CONNECTED TO MODEL GEO_MODEL        PACKAGE RCH_0            ON UNIT   1017 AT TIME STEP      3, STRESS PERIOD     10
 UBDSV06 SAVING            EVTA  IN MODEL GEO_MODEL        PACKAGE GEO_MODEL       CONNECTED TO MODEL GEO_MODEL        PACKAGE EVTA_0           ON UNIT   1017 AT TIME STEP      3, STRESS PERIOD     10

 HEAD WILL BE SAVED ON UNIT 1018 AT END OF TIME STEP    3, STRESS PERIOD   10

end timestep


start timestep kper="10" kstp="4" mode="normal"

 UBDSV1 SAVING           STO-SS ON UNIT   1017 AT TIME STEP      4, STRESS PERIOD     10
 UBDSV1 SAVING     FLOW-JA-FACE ON UNIT   1017 AT TIME STEP      4, STRESS PERIOD     10
 UBDSV06 SAVING       DATA-SPDIS IN MODEL GEO_MODEL        PACKAGE NPF             CONNECTED TO MODEL GEO_MODEL        PACKAGE NPF              ON UNIT   1017 AT TIME STEP      4, STRESS PERIOD     10
 UBDSV06 SAVING              WEL IN MODEL GEO_MODEL        PACKAGE GEO_MODEL       CONNECTED TO MODEL GEO_MODEL        PACKAGE WEL_0            ON UNIT   1017 AT TIME STEP      4, STRESS PERIOD     10
 UBDSV06 SAVING              RIV IN MODEL GEO_MODEL        PACKAGE GEO_MODEL       CONNECTED TO MODEL GEO_MODEL        PACKAGE RIV_0            ON UNIT   1017 AT TIME STEP      4, STRESS PERIOD     10
 UBDSV06 SAVING              GHB IN MODEL GEO_MODEL        PACKAGE GEO_MODEL       CONNECTED TO MODEL GEO_MODEL        PACKAGE GHB_0            ON UNIT   1017 AT TIME STEP      4, STRESS PERIOD     10
 UBDSV06 SAVING              RCH IN MODEL GEO_MODEL        PACKAGE GEO_MODEL       CONNECTED TO MODEL GEO_MODEL        PACKAGE RCH_0            ON UNIT   1017 AT TIME STEP      4, STRESS PERIOD     10
 UBDSV06 SAVING            EVTA  IN MODEL GEO_MODEL        PACKAGE GEO_MODEL       CONNECTED TO MODEL GEO_MODEL        PACKAGE EVTA_0           ON UNIT   1017 AT TIME STEP      4, STRESS PERIOD     10

 HEAD WILL BE SAVED ON UNIT 1018 AT END OF TIME STEP    4, STRESS PERIOD   10


  VOLUME BUDGET FOR ENTIRE MODEL AT END OF TIME STEP    4, STRESS PERIOD  10
  ---------------------------------------------------------------------------------------------------

     CUMULATIVE VOLUME      L**3       RATES FOR THIS TIME STEP      L**3/T          PACKAGE NAME    
     ------------------                 ------------------------                     ----------------

           IN:                                      IN:
           ---                                      ---
              STO-SS =      168327.8876                STO-SS =       1.5826E-09     STORAGE                          
                 WEL =           0.0000                   WEL =           0.0000     WEL_0                            
                 RIV =   107206015.8847                   RIV =           0.6053     RIV_0                            
                 GHB =    68489661.6290                   GHB =           0.4161     GHB_0                            
                 RCH =     4797612.3343                   RCH =       3.0849E-02     RCH_0                            
                EVTA =           0.0000                  EVTA =           0.0000     EVTA_0                           

            TOTAL IN =   180661617.7357              TOTAL IN =           1.0522

          OUT:                                     OUT:
          ----                                     ----
              STO-SS =      102978.1286                STO-SS =       3.6416E-07     STORAGE                          
                 WEL =    32832000.0000                   WEL =           0.0000     WEL_0                            
                 RIV =    66564355.1643                   RIV =           0.4942     RIV_0                            
                 GHB =    77114019.5501                   GHB =           0.5233     GHB_0                            
                 RCH =           0.0000                   RCH =           0.0000     RCH_0                            
                EVTA =     4079625.2042                  EVTA =       3.4152E-02     EVTA_0                           

           TOTAL OUT =   180692978.0472             TOTAL OUT =           1.0517

            IN - OUT =      -31360.3115              IN - OUT =       5.7656E-04

 PERCENT DISCREPANCY =          -0.02     PERCENT DISCREPANCY =           0.05




         TIME SUMMARY AT END OF TIME STEP    4 IN STRESS PERIOD   10
                    SECONDS     MINUTES      HOURS       DAYS        YEARS
                    -----------------------------------------------------------
   TIME STEP LENGTH 4.32000E+06  72000.      1200.0      50.000     0.13689    
 STRESS PERIOD TIME 1.72800E+07 2.88000E+05  4800.0      200.00     0.54757    
         TOTAL TIME 1.55520E+08 2.59200E+06  43200.      1800.0      4.9281    


end timestep


start timestep kper="11" kstp="1" mode="normal"


 OUTPUT CONTROL FOR STRESS PERIOD 11 IS REPEATED USING SETTINGS FROM A PREVIOUS STRESS PERIOD.


 STRESS PERIOD 11 IS TRANSIENT


 REUSING RIVS FROM LAST STRESS PERIOD

 REUSING GHBS FROM LAST STRESS PERIOD

 REUSING RCHS FROM LAST STRESS PERIOD

 REUSING EVTS FROM LAST STRESS PERIOD
 UBDSV1 SAVING           STO-SS ON UNIT   1017 AT TIME STEP      1, STRESS PERIOD     11
 UBDSV1 SAVING     FLOW-JA-FACE ON UNIT   1017 AT TIME STEP      1, STRESS PERIOD     11
 UBDSV06 SAVING       DATA-SPDIS IN MODEL GEO_MODEL        PACKAGE NPF             CONNECTED TO MODEL GEO_MODEL        PACKAGE NPF              ON UNIT   1017 AT TIME STEP      1, STRESS PERIOD     11
 UBDSV06 SAVING              WEL IN MODEL GEO_MODEL        PACKAGE GEO_MODEL       CONNECTED TO MODEL GEO_MODEL        PACKAGE WEL_0            ON UNIT   1017 AT TIME STEP      1, STRESS PERIOD     11
 UBDSV06 SAVING              RIV IN MODEL GEO_MODEL        PACKAGE GEO_MODEL       CONNECTED TO MODEL GEO_MODEL        PACKAGE RIV_0            ON UNIT   1017 AT TIME STEP      1, STRESS PERIOD     11
 UBDSV06 SAVING              GHB IN MODEL GEO_MODEL        PACKAGE GEO_MODEL       CONNECTED TO MODEL GEO_MODEL        PACKAGE GHB_0            ON UNIT   1017 AT TIME STEP      1, STRESS PERIOD     11
 UBDSV06 SAVING              RCH IN MODEL GEO_MODEL        PACKAGE GEO_MODEL       CONNECTED TO MODEL GEO_MODEL        PACKAGE RCH_0            ON UNIT   1017 AT TIME STEP      1, STRESS PERIOD     11
 UBDSV06 SAVING            EVTA  IN MODEL GEO_MODEL        PACKAGE GEO_MODEL       CONNECTED TO MODEL GEO_MODEL        PACKAGE EVTA_0           ON UNIT   1017 AT TIME STEP      1, STRESS PERIOD     11

 HEAD WILL BE SAVED ON UNIT 1018 AT END OF TIME STEP    1, STRESS PERIOD   11

end timestep


start timestep kper="11" kstp="2" mode="normal"

 UBDSV1 SAVING           STO-SS ON UNIT   1017 AT TIME STEP      2, STRESS PERIOD     11
 UBDSV1 SAVING     FLOW-JA-FACE ON UNIT   1017 AT TIME STEP      2, STRESS PERIOD     11
 UBDSV06 SAVING       DATA-SPDIS IN MODEL GEO_MODEL        PACKAGE NPF             CONNECTED TO MODEL GEO_MODEL        PACKAGE NPF              ON UNIT   1017 AT TIME STEP      2, STRESS PERIOD     11
 UBDSV06 SAVING              WEL IN MODEL GEO_MODEL        PACKAGE GEO_MODEL       CONNECTED TO MODEL GEO_MODEL        PACKAGE WEL_0            ON UNIT   1017 AT TIME STEP      2, STRESS PERIOD     11
 UBDSV06 SAVING              RIV IN MODEL GEO_MODEL        PACKAGE GEO_MODEL       CONNECTED TO MODEL GEO_MODEL        PACKAGE RIV_0            ON UNIT   1017 AT TIME STEP      2, STRESS PERIOD     11
 UBDSV06 SAVING              GHB IN MODEL GEO_MODEL        PACKAGE GEO_MODEL       CONNECTED TO MODEL GEO_MODEL        PACKAGE GHB_0            ON UNIT   1017 AT TIME STEP      2, STRESS PERIOD     11
 UBDSV06 SAVING              RCH IN MODEL GEO_MODEL        PACKAGE GEO_MODEL       CONNECTED TO MODEL GEO_MODEL        PACKAGE RCH_0            ON UNIT   1017 AT TIME STEP      2, STRESS PERIOD     11
 UBDSV06 SAVING            EVTA  IN MODEL GEO_MODEL        PACKAGE GEO_MODEL       CONNECTED TO MODEL GEO_MODEL        PACKAGE EVTA_0           ON UNIT   1017 AT TIME STEP      2, STRESS PERIOD     11

 HEAD WILL BE SAVED ON UNIT 1018 AT END OF TIME STEP    2, STRESS PERIOD   11

end timestep


start timestep kper="11" kstp="3" mode="normal"

 UBDSV1 SAVING           STO-SS ON UNIT   1017 AT TIME STEP      3, STRESS PERIOD     11
 UBDSV1 SAVING     FLOW-JA-FACE ON UNIT   1017 AT TIME STEP      3, STRESS PERIOD     11
 UBDSV06 SAVING       DATA-SPDIS IN MODEL GEO_MODEL        PACKAGE NPF             CONNECTED TO MODEL GEO_MODEL        PACKAGE NPF              ON UNIT   1017 AT TIME STEP      3, STRESS PERIOD     11
 UBDSV06 SAVING              WEL IN MODEL GEO_MODEL        PACKAGE GEO_MODEL       CONNECTED TO MODEL GEO_MODEL        PACKAGE WEL_0            ON UNIT   1017 AT TIME STEP      3, STRESS PERIOD     11
 UBDSV06 SAVING              RIV IN MODEL GEO_MODEL        PACKAGE GEO_MODEL       CONNECTED TO MODEL GEO_MODEL        PACKAGE RIV_0            ON UNIT   1017 AT TIME STEP      3, STRESS PERIOD     11
 UBDSV06 SAVING              GHB IN MODEL GEO_MODEL        PACKAGE GEO_MODEL       CONNECTED TO MODEL GEO_MODEL        PACKAGE GHB_0            ON UNIT   1017 AT TIME STEP      3, STRESS PERIOD     11
 UBDSV06 SAVING              RCH IN MODEL GEO_MODEL        PACKAGE GEO_MODEL       CONNECTED TO MODEL GEO_MODEL        PACKAGE RCH_0            ON UNIT   1017 AT TIME STEP      3, STRESS PERIOD     11
 UBDSV06 SAVING            EVTA  IN MODEL GEO_MODEL        PACKAGE GEO_MODEL       CONNECTED TO MODEL GEO_MODEL        PACKAGE EVTA_0           ON UNIT   1017 AT TIME STEP      3, STRESS PERIOD     11

 HEAD WILL BE SAVED ON UNIT 1018 AT END OF TIME STEP    3, STRESS PERIOD   11

end timestep


start timestep kper="11" kstp="4" mode="normal"

 UBDSV1 SAVING           STO-SS ON UNIT   1017 AT TIME STEP      4, STRESS PERIOD     11
 UBDSV1 SAVING     FLOW-JA-FACE ON UNIT   1017 AT TIME STEP      4, STRESS PERIOD     11
 UBDSV06 SAVING       DATA-SPDIS IN MODEL GEO_MODEL        PACKAGE NPF             CONNECTED TO MODEL GEO_MODEL        PACKAGE NPF              ON UNIT   1017 AT TIME STEP      4, STRESS PERIOD     11
 UBDSV06 SAVING              WEL IN MODEL GEO_MODEL        PACKAGE GEO_MODEL       CONNECTED TO MODEL GEO_MODEL        PACKAGE WEL_0            ON UNIT   1017 AT TIME STEP      4, STRESS PERIOD     11
 UBDSV06 SAVING              RIV IN MODEL GEO_MODEL        PACKAGE GEO_MODEL       CONNECTED TO MODEL GEO_MODEL        PACKAGE RIV_0            ON UNIT   1017 AT TIME STEP      4, STRESS PERIOD     11
 UBDSV06 SAVING              GHB IN MODEL GEO_MODEL        PACKAGE GEO_MODEL       CONNECTED TO MODEL GEO_MODEL        PACKAGE GHB_0            ON UNIT   1017 AT TIME STEP      4, STRESS PERIOD     11
 UBDSV06 SAVING              RCH IN MODEL GEO_MODEL        PACKAGE GEO_MODEL       CONNECTED TO MODEL GEO_MODEL        PACKAGE RCH_0            ON UNIT   1017 AT TIME STEP      4, STRESS PERIOD     11
 UBDSV06 SAVING            EVTA  IN MODEL GEO_MODEL        PACKAGE GEO_MODEL       CONNECTED TO MODEL GEO_MODEL        PACKAGE EVTA_0           ON UNIT   1017 AT TIME STEP      4, STRESS PERIOD     11

 HEAD WILL BE SAVED ON UNIT 1018 AT END OF TIME STEP    4, STRESS PERIOD   11


  VOLUME BUDGET FOR ENTIRE MODEL AT END OF TIME STEP    4, STRESS PERIOD  11
  ---------------------------------------------------------------------------------------------------

     CUMULATIVE VOLUME      L**3       RATES FOR THIS TIME STEP      L**3/T          PACKAGE NAME    
     ------------------                 ------------------------                     ----------------

           IN:                                      IN:
           ---                                      ---
              STO-SS =      168327.8889                STO-SS =       8.2790E-12     STORAGE                          
                 WEL =           0.0000                   WEL =           0.0000     WEL_0                            
                 RIV =   117665274.3658                   RIV =           0.6053     RIV_0                            
                 GHB =    75679648.6931                   GHB =           0.4161     GHB_0                            
                 RCH =     5330680.3680                   RCH =       3.0849E-02     RCH_0                            
                EVTA =           0.0000                  EVTA =           0.0000     EVTA_0                           

            TOTAL IN =   198843931.3159              TOTAL IN =           1.0522

          OUT:                                     OUT:
          ----                                     ----
              STO-SS =      102981.6154                STO-SS =       3.5768E-07     STORAGE                          
                 WEL =    32832000.0000                   WEL =           0.0000     WEL_0                            
                 RIV =    75104675.1108                   RIV =           0.4942     RIV_0                            
                 GHB =    86156405.3125                   GHB =           0.5233     GHB_0                            
                 RCH =           0.0000                   RCH =           0.0000     RCH_0                            
                EVTA =     4669796.6767                  EVTA =       3.4154E-02     EVTA_0                           

           TOTAL OUT =   198865858.7154             TOTAL OUT =           1.0517

            IN - OUT =      -21927.3996              IN - OUT =       5.1774E-04

 PERCENT DISCREPANCY =          -0.01     PERCENT DISCREPANCY =           0.05




         TIME SUMMARY AT END OF TIME STEP    4 IN STRESS PERIOD   11
                    SECONDS     MINUTES      HOURS       DAYS        YEARS
                    -----------------------------------------------------------
   TIME STEP LENGTH 4.32000E+06  72000.      1200.0      50.000     0.13689    
 STRESS PERIOD TIME 1.72800E+07 2.88000E+05  4800.0      200.00     0.54757    
         TOTAL TIME 1.72800E+08 2.88000E+06  48000.      2000.0      5.4757    


end timestep

